<?xml version='1.0' encoding='utf-8'?>
<routes>
	<vType accel="3.0" decel="6.0" id="CarDefault" length="5.0" minGap="2.5" maxSpeed="50.0" sigma="0.5" />
	<route id="sr1065" edges="488 975 976 743 744 745 741 742 430 210 12 11 341 627 628 967 968 957 958 1002 1003 1004 1005 1006 1007 884 885 346" fromJunction="357" toJunction="315" />
	<route id="sr1066" edges="226 225 224 432 317 316 629 630 631 506 62 615 84 583 967 968 957 958 1002 1003 1004 1005 379 378 89 373 268 387 386 390 389 388 822" fromJunction="87" toJunction="316" />
	<route id="sr1067" edges="965 750 751 964 741 742 430 210 12 11 341 18 17 16 15 14 1026 1027 446 445 447 758 759 760" fromJunction="358" toJunction="87" />
	<route id="sr1068" edges="954 752 157 764 765 952 536 674 164 738 747 748 749 637 638 639 640 767 550 551 552 553 554 833 594 611 810 387 386 390 389 388 822" fromJunction="77" toJunction="316" />
	<vehicle id="v0" depart="0.0" route="sr1065" type="CarDefault" departLane="random" />
	<vehicle id="v475" depart="0.0" route="sr1067" type="CarDefault" departLane="random" />
	<vehicle id="v618" depart="0.0" route="sr1068" type="CarDefault" departLane="random" />
	<vehicle id="v116" depart="1" route="sr1066" type="CarDefault" departLane="random" />
	<vehicle id="v121" depart="1" route="sr1066" type="CarDefault" departLane="random" />
	<vehicle id="v120" depart="2" route="sr1066" type="CarDefault" departLane="random" />
	<vehicle id="v117" depart="3" route="sr1066" type="CarDefault" departLane="random" />
	<vehicle id="v119" depart="3" route="sr1066" type="CarDefault" departLane="random" />
	<vehicle id="v619" depart="3.77" route="sr1068" type="CarDefault" departLane="random" />
	<vehicle id="v118" depart="4" route="sr1066" type="CarDefault" departLane="random" />
	<vehicle id="v476" depart="4.23" route="sr1067" type="CarDefault" departLane="random" />
	<vehicle id="v1" depart="5.26" route="sr1065" type="CarDefault" departLane="random" />
	<vehicle id="v126" depart="6" route="sr1066" type="CarDefault" departLane="random" />
	<vehicle id="v620" depart="7.55" route="sr1068" type="CarDefault" departLane="random" />
	<vehicle id="v123" depart="8" route="sr1066" type="CarDefault" departLane="random" />
	<vehicle id="v477" depart="8.45" route="sr1067" type="CarDefault" departLane="random" />
	<vehicle id="v2" depart="10.53" route="sr1065" type="CarDefault" departLane="random" />
	<vehicle id="v621" depart="11.32" route="sr1068" type="CarDefault" departLane="random" />
	<vehicle id="v478" depart="12.68" route="sr1067" type="CarDefault" departLane="random" />
	<vehicle id="v124" depart="13" route="sr1066" type="CarDefault" departLane="random" />
	<vehicle id="v122" depart="15" route="sr1066" type="CarDefault" departLane="random" />
	<vehicle id="v622" depart="15.09" route="sr1068" type="CarDefault" departLane="random" />
	<vehicle id="v3" depart="15.79" route="sr1065" type="CarDefault" departLane="random" />
	<vehicle id="v115" depart="16" route="sr1066" type="CarDefault" departLane="random" />
	<vehicle id="v479" depart="16.9" route="sr1067" type="CarDefault" departLane="random" />
	<vehicle id="v125" depart="18" route="sr1066" type="CarDefault" departLane="random" />
	<vehicle id="v623" depart="18.87" route="sr1068" type="CarDefault" departLane="random" />
	<vehicle id="v134" depart="20" route="sr1066" type="CarDefault" departLane="random" />
	<vehicle id="v138" depart="20" route="sr1066" type="CarDefault" departLane="random" />
	<vehicle id="v129" depart="21" route="sr1066" type="CarDefault" departLane="random" />
	<vehicle id="v132" depart="21" route="sr1066" type="CarDefault" departLane="random" />
	<vehicle id="v4" depart="21.05" route="sr1065" type="CarDefault" departLane="random" />
	<vehicle id="v480" depart="21.13" route="sr1067" type="CarDefault" departLane="random" />
	<vehicle id="v624" depart="22.64" route="sr1068" type="CarDefault" departLane="random" />
	<vehicle id="v127" depart="25" route="sr1066" type="CarDefault" departLane="random" />
	<vehicle id="v128" depart="25" route="sr1066" type="CarDefault" departLane="random" />
	<vehicle id="v481" depart="25.35" route="sr1067" type="CarDefault" departLane="random" />
	<vehicle id="v135" depart="26" route="sr1066" type="CarDefault" departLane="random" />
	<vehicle id="v5" depart="26.32" route="sr1065" type="CarDefault" departLane="random" />
	<vehicle id="v625" depart="26.42" route="sr1068" type="CarDefault" departLane="random" />
	<vehicle id="v482" depart="29.58" route="sr1067" type="CarDefault" departLane="random" />
	<vehicle id="v626" depart="30.19" route="sr1068" type="CarDefault" departLane="random" />
	<vehicle id="v6" depart="31.58" route="sr1065" type="CarDefault" departLane="random" />
	<vehicle id="v131" depart="33" route="sr1066" type="CarDefault" departLane="random" />
	<vehicle id="v133" depart="33" route="sr1066" type="CarDefault" departLane="random" />
	<vehicle id="v483" depart="33.8" route="sr1067" type="CarDefault" departLane="random" />
	<vehicle id="v627" depart="33.96" route="sr1068" type="CarDefault" departLane="random" />
	<vehicle id="v136" depart="35" route="sr1066" type="CarDefault" departLane="random" />
	<vehicle id="v7" depart="36.84" route="sr1065" type="CarDefault" departLane="random" />
	<vehicle id="v137" depart="37" route="sr1066" type="CarDefault" departLane="random" />
	<vehicle id="v628" depart="37.74" route="sr1068" type="CarDefault" departLane="random" />
	<vehicle id="v130" depart="38" route="sr1066" type="CarDefault" departLane="random" />
	<vehicle id="v484" depart="38.03" route="sr1067" type="CarDefault" departLane="random" />
	<vehicle id="v149" depart="40" route="sr1066" type="CarDefault" departLane="random" />
	<vehicle id="v146" depart="41" route="sr1066" type="CarDefault" departLane="random" />
	<vehicle id="v629" depart="41.51" route="sr1068" type="CarDefault" departLane="random" />
	<vehicle id="v8" depart="42.11" route="sr1065" type="CarDefault" departLane="random" />
	<vehicle id="v485" depart="42.25" route="sr1067" type="CarDefault" departLane="random" />
	<vehicle id="v145" depart="44" route="sr1066" type="CarDefault" departLane="random" />
	<vehicle id="v630" depart="45.28" route="sr1068" type="CarDefault" departLane="random" />
	<vehicle id="v140" depart="46" route="sr1066" type="CarDefault" departLane="random" />
	<vehicle id="v486" depart="46.48" route="sr1067" type="CarDefault" departLane="random" />
	<vehicle id="v143" depart="47" route="sr1066" type="CarDefault" departLane="random" />
	<vehicle id="v9" depart="47.37" route="sr1065" type="CarDefault" departLane="random" />
	<vehicle id="v142" depart="48" route="sr1066" type="CarDefault" departLane="random" />
	<vehicle id="v141" depart="49" route="sr1066" type="CarDefault" departLane="random" />
	<vehicle id="v631" depart="49.06" route="sr1068" type="CarDefault" departLane="random" />
	<vehicle id="v147" depart="50" route="sr1066" type="CarDefault" departLane="random" />
	<vehicle id="v487" depart="50.7" route="sr1067" type="CarDefault" departLane="random" />
	<vehicle id="v150" depart="52" route="sr1066" type="CarDefault" departLane="random" />
	<vehicle id="v10" depart="52.63" route="sr1065" type="CarDefault" departLane="random" />
	<vehicle id="v632" depart="52.83" route="sr1068" type="CarDefault" departLane="random" />
	<vehicle id="v148" depart="53" route="sr1066" type="CarDefault" departLane="random" />
	<vehicle id="v144" depart="54" route="sr1066" type="CarDefault" departLane="random" />
	<vehicle id="v488" depart="54.93" route="sr1067" type="CarDefault" departLane="random" />
	<vehicle id="v139" depart="56" route="sr1066" type="CarDefault" departLane="random" />
	<vehicle id="v633" depart="56.6" route="sr1068" type="CarDefault" departLane="random" />
	<vehicle id="v11" depart="57.89" route="sr1065" type="CarDefault" departLane="random" />
	<vehicle id="v489" depart="59.15" route="sr1067" type="CarDefault" departLane="random" />
	<vehicle id="v155" depart="60" route="sr1066" type="CarDefault" departLane="random" />
	<vehicle id="v634" depart="60.38" route="sr1068" type="CarDefault" departLane="random" />
	<vehicle id="v153" depart="61" route="sr1066" type="CarDefault" departLane="random" />
	<vehicle id="v160" depart="63" route="sr1066" type="CarDefault" departLane="random" />
	<vehicle id="v12" depart="63.16" route="sr1065" type="CarDefault" departLane="random" />
	<vehicle id="v490" depart="63.38" route="sr1067" type="CarDefault" departLane="random" />
	<vehicle id="v635" depart="64.15" route="sr1068" type="CarDefault" departLane="random" />
	<vehicle id="v152" depart="66" route="sr1066" type="CarDefault" departLane="random" />
	<vehicle id="v157" depart="67" route="sr1066" type="CarDefault" departLane="random" />
	<vehicle id="v491" depart="67.61" route="sr1067" type="CarDefault" departLane="random" />
	<vehicle id="v636" depart="67.92" route="sr1068" type="CarDefault" departLane="random" />
	<vehicle id="v162" depart="68" route="sr1066" type="CarDefault" departLane="random" />
	<vehicle id="v13" depart="68.42" route="sr1065" type="CarDefault" departLane="random" />
	<vehicle id="v161" depart="70" route="sr1066" type="CarDefault" departLane="random" />
	<vehicle id="v156" depart="71" route="sr1066" type="CarDefault" departLane="random" />
	<vehicle id="v637" depart="71.7" route="sr1068" type="CarDefault" departLane="random" />
	<vehicle id="v492" depart="71.83" route="sr1067" type="CarDefault" departLane="random" />
	<vehicle id="v14" depart="73.68" route="sr1065" type="CarDefault" departLane="random" />
	<vehicle id="v154" depart="75" route="sr1066" type="CarDefault" departLane="random" />
	<vehicle id="v638" depart="75.47" route="sr1068" type="CarDefault" departLane="random" />
	<vehicle id="v151" depart="76" route="sr1066" type="CarDefault" departLane="random" />
	<vehicle id="v493" depart="76.06" route="sr1067" type="CarDefault" departLane="random" />
	<vehicle id="v159" depart="78" route="sr1066" type="CarDefault" departLane="random" />
	<vehicle id="v15" depart="78.95" route="sr1065" type="CarDefault" departLane="random" />
	<vehicle id="v158" depart="79" route="sr1066" type="CarDefault" departLane="random" />
	<vehicle id="v639" depart="79.25" route="sr1068" type="CarDefault" departLane="random" />
	<vehicle id="v494" depart="80.28" route="sr1067" type="CarDefault" departLane="random" />
	<vehicle id="v170" depart="82" route="sr1066" type="CarDefault" departLane="random" />
	<vehicle id="v163" depart="83" route="sr1066" type="CarDefault" departLane="random" />
	<vehicle id="v169" depart="83" route="sr1066" type="CarDefault" departLane="random" />
	<vehicle id="v640" depart="83.02" route="sr1068" type="CarDefault" departLane="random" />
	<vehicle id="v16" depart="84.21" route="sr1065" type="CarDefault" departLane="random" />
	<vehicle id="v495" depart="84.51" route="sr1067" type="CarDefault" departLane="random" />
	<vehicle id="v641" depart="86.79" route="sr1068" type="CarDefault" departLane="random" />
	<vehicle id="v168" depart="87" route="sr1066" type="CarDefault" departLane="random" />
	<vehicle id="v166" depart="88" route="sr1066" type="CarDefault" departLane="random" />
	<vehicle id="v496" depart="88.73" route="sr1067" type="CarDefault" departLane="random" />
	<vehicle id="v17" depart="89.47" route="sr1065" type="CarDefault" departLane="random" />
	<vehicle id="v171" depart="90" route="sr1066" type="CarDefault" departLane="random" />
	<vehicle id="v642" depart="90.57" route="sr1068" type="CarDefault" departLane="random" />
	<vehicle id="v174" depart="91" route="sr1066" type="CarDefault" departLane="random" />
	<vehicle id="v497" depart="92.96" route="sr1067" type="CarDefault" departLane="random" />
	<vehicle id="v164" depart="94" route="sr1066" type="CarDefault" departLane="random" />
	<vehicle id="v643" depart="94.34" route="sr1068" type="CarDefault" departLane="random" />
	<vehicle id="v18" depart="94.74" route="sr1065" type="CarDefault" departLane="random" />
	<vehicle id="v167" depart="95" route="sr1066" type="CarDefault" departLane="random" />
	<vehicle id="v498" depart="97.18" route="sr1067" type="CarDefault" departLane="random" />
	<vehicle id="v165" depart="98" route="sr1066" type="CarDefault" departLane="random" />
	<vehicle id="v644" depart="98.11" route="sr1068" type="CarDefault" departLane="random" />
	<vehicle id="v172" depart="99" route="sr1066" type="CarDefault" departLane="random" />
	<vehicle id="v173" depart="99" route="sr1066" type="CarDefault" departLane="random" />
	<vehicle id="v19" depart="100.0" route="sr1065" type="CarDefault" departLane="random" />
	<vehicle id="v184" depart="101" route="sr1066" type="CarDefault" departLane="random" />
	<vehicle id="v185" depart="101" route="sr1066" type="CarDefault" departLane="random" />
	<vehicle id="v499" depart="101.41" route="sr1067" type="CarDefault" departLane="random" />
	<vehicle id="v645" depart="101.89" route="sr1068" type="CarDefault" departLane="random" />
	<vehicle id="v181" depart="103" route="sr1066" type="CarDefault" departLane="random" />
	<vehicle id="v183" depart="105" route="sr1066" type="CarDefault" departLane="random" />
	<vehicle id="v186" depart="105" route="sr1066" type="CarDefault" departLane="random" />
	<vehicle id="v20" depart="105.26" route="sr1065" type="CarDefault" departLane="random" />
	<vehicle id="v500" depart="105.63" route="sr1067" type="CarDefault" departLane="random" />
	<vehicle id="v646" depart="105.66" route="sr1068" type="CarDefault" departLane="random" />
	<vehicle id="v176" depart="109" route="sr1066" type="CarDefault" departLane="random" />
	<vehicle id="v647" depart="109.43" route="sr1068" type="CarDefault" departLane="random" />
	<vehicle id="v501" depart="109.86" route="sr1067" type="CarDefault" departLane="random" />
	<vehicle id="v182" depart="110" route="sr1066" type="CarDefault" departLane="random" />
	<vehicle id="v21" depart="110.53" route="sr1065" type="CarDefault" departLane="random" />
	<vehicle id="v177" depart="112" route="sr1066" type="CarDefault" departLane="random" />
	<vehicle id="v648" depart="113.21" route="sr1068" type="CarDefault" departLane="random" />
	<vehicle id="v179" depart="114" route="sr1066" type="CarDefault" departLane="random" />
	<vehicle id="v502" depart="114.08" route="sr1067" type="CarDefault" departLane="random" />
	<vehicle id="v22" depart="115.79" route="sr1065" type="CarDefault" departLane="random" />
	<vehicle id="v178" depart="116" route="sr1066" type="CarDefault" departLane="random" />
	<vehicle id="v649" depart="116.98" route="sr1068" type="CarDefault" departLane="random" />
	<vehicle id="v175" depart="118" route="sr1066" type="CarDefault" departLane="random" />
	<vehicle id="v180" depart="118" route="sr1066" type="CarDefault" departLane="random" />
	<vehicle id="v503" depart="118.31" route="sr1067" type="CarDefault" departLane="random" />
	<vehicle id="v190" depart="120" route="sr1066" type="CarDefault" departLane="random" />
	<vehicle id="v195" depart="120" route="sr1066" type="CarDefault" departLane="random" />
	<vehicle id="v650" depart="120.75" route="sr1068" type="CarDefault" departLane="random" />
	<vehicle id="v23" depart="121.05" route="sr1065" type="CarDefault" departLane="random" />
	<vehicle id="v188" depart="122" route="sr1066" type="CarDefault" departLane="random" />
	<vehicle id="v504" depart="122.54" route="sr1067" type="CarDefault" departLane="random" />
	<vehicle id="v187" depart="123" route="sr1066" type="CarDefault" departLane="random" />
	<vehicle id="v651" depart="124.53" route="sr1068" type="CarDefault" departLane="random" />
	<vehicle id="v24" depart="126.32" route="sr1065" type="CarDefault" departLane="random" />
	<vehicle id="v505" depart="126.76" route="sr1067" type="CarDefault" departLane="random" />
	<vehicle id="v198" depart="127" route="sr1066" type="CarDefault" departLane="random" />
	<vehicle id="v652" depart="128.3" route="sr1068" type="CarDefault" departLane="random" />
	<vehicle id="v506" depart="130.99" route="sr1067" type="CarDefault" departLane="random" />
	<vehicle id="v25" depart="131.58" route="sr1065" type="CarDefault" departLane="random" />
	<vehicle id="v192" depart="132" route="sr1066" type="CarDefault" departLane="random" />
	<vehicle id="v653" depart="132.08" route="sr1068" type="CarDefault" departLane="random" />
	<vehicle id="v191" depart="133" route="sr1066" type="CarDefault" departLane="random" />
	<vehicle id="v193" depart="133" route="sr1066" type="CarDefault" departLane="random" />
	<vehicle id="v196" depart="133" route="sr1066" type="CarDefault" departLane="random" />
	<vehicle id="v194" depart="134" route="sr1066" type="CarDefault" departLane="random" />
	<vehicle id="v507" depart="135.21" route="sr1067" type="CarDefault" departLane="random" />
	<vehicle id="v654" depart="135.85" route="sr1068" type="CarDefault" departLane="random" />
	<vehicle id="v26" depart="136.84" route="sr1065" type="CarDefault" departLane="random" />
	<vehicle id="v189" depart="139" route="sr1066" type="CarDefault" departLane="random" />
	<vehicle id="v197" depart="139" route="sr1066" type="CarDefault" departLane="random" />
	<vehicle id="v508" depart="139.44" route="sr1067" type="CarDefault" departLane="random" />
	<vehicle id="v655" depart="139.62" route="sr1068" type="CarDefault" departLane="random" />
	<vehicle id="v206" depart="142" route="sr1066" type="CarDefault" departLane="random" />
	<vehicle id="v27" depart="142.11" route="sr1065" type="CarDefault" departLane="random" />
	<vehicle id="v202" depart="143" route="sr1066" type="CarDefault" departLane="random" />
	<vehicle id="v208" depart="143" route="sr1066" type="CarDefault" departLane="random" />
	<vehicle id="v656" depart="143.4" route="sr1068" type="CarDefault" departLane="random" />
	<vehicle id="v509" depart="143.66" route="sr1067" type="CarDefault" departLane="random" />
	<vehicle id="v210" depart="144" route="sr1066" type="CarDefault" departLane="random" />
	<vehicle id="v204" depart="147" route="sr1066" type="CarDefault" departLane="random" />
	<vehicle id="v657" depart="147.17" route="sr1068" type="CarDefault" departLane="random" />
	<vehicle id="v28" depart="147.37" route="sr1065" type="CarDefault" departLane="random" />
	<vehicle id="v510" depart="147.89" route="sr1067" type="CarDefault" departLane="random" />
	<vehicle id="v199" depart="149" route="sr1066" type="CarDefault" departLane="random" />
	<vehicle id="v201" depart="149" route="sr1066" type="CarDefault" departLane="random" />
	<vehicle id="v203" depart="149" route="sr1066" type="CarDefault" departLane="random" />
	<vehicle id="v658" depart="150.94" route="sr1068" type="CarDefault" departLane="random" />
	<vehicle id="v205" depart="152" route="sr1066" type="CarDefault" departLane="random" />
	<vehicle id="v511" depart="152.11" route="sr1067" type="CarDefault" departLane="random" />
	<vehicle id="v29" depart="152.63" route="sr1065" type="CarDefault" departLane="random" />
	<vehicle id="v659" depart="154.72" route="sr1068" type="CarDefault" departLane="random" />
	<vehicle id="v200" depart="156" route="sr1066" type="CarDefault" departLane="random" />
	<vehicle id="v512" depart="156.34" route="sr1067" type="CarDefault" departLane="random" />
	<vehicle id="v30" depart="157.89" route="sr1065" type="CarDefault" departLane="random" />
	<vehicle id="v207" depart="158" route="sr1066" type="CarDefault" departLane="random" />
	<vehicle id="v209" depart="158" route="sr1066" type="CarDefault" departLane="random" />
	<vehicle id="v660" depart="158.49" route="sr1068" type="CarDefault" departLane="random" />
	<vehicle id="v513" depart="160.56" route="sr1067" type="CarDefault" departLane="random" />
	<vehicle id="v217" depart="161" route="sr1066" type="CarDefault" departLane="random" />
	<vehicle id="v661" depart="162.26" route="sr1068" type="CarDefault" departLane="random" />
	<vehicle id="v31" depart="163.16" route="sr1065" type="CarDefault" departLane="random" />
	<vehicle id="v514" depart="164.79" route="sr1067" type="CarDefault" departLane="random" />
	<vehicle id="v216" depart="166" route="sr1066" type="CarDefault" departLane="random" />
	<vehicle id="v222" depart="166" route="sr1066" type="CarDefault" departLane="random" />
	<vehicle id="v662" depart="166.04" route="sr1068" type="CarDefault" departLane="random" />
	<vehicle id="v32" depart="168.42" route="sr1065" type="CarDefault" departLane="random" />
	<vehicle id="v212" depart="169" route="sr1066" type="CarDefault" departLane="random" />
	<vehicle id="v218" depart="169" route="sr1066" type="CarDefault" departLane="random" />
	<vehicle id="v219" depart="169" route="sr1066" type="CarDefault" departLane="random" />
	<vehicle id="v515" depart="169.01" route="sr1067" type="CarDefault" departLane="random" />
	<vehicle id="v663" depart="169.81" route="sr1068" type="CarDefault" departLane="random" />
	<vehicle id="v221" depart="170" route="sr1066" type="CarDefault" departLane="random" />
	<vehicle id="v213" depart="171" route="sr1066" type="CarDefault" departLane="random" />
	<vehicle id="v220" depart="171" route="sr1066" type="CarDefault" departLane="random" />
	<vehicle id="v516" depart="173.24" route="sr1067" type="CarDefault" departLane="random" />
	<vehicle id="v664" depart="173.58" route="sr1068" type="CarDefault" departLane="random" />
	<vehicle id="v33" depart="173.68" route="sr1065" type="CarDefault" departLane="random" />
	<vehicle id="v211" depart="174" route="sr1066" type="CarDefault" departLane="random" />
	<vehicle id="v214" depart="174" route="sr1066" type="CarDefault" departLane="random" />
	<vehicle id="v215" depart="174" route="sr1066" type="CarDefault" departLane="random" />
	<vehicle id="v665" depart="177.36" route="sr1068" type="CarDefault" departLane="random" />
	<vehicle id="v517" depart="177.46" route="sr1067" type="CarDefault" departLane="random" />
	<vehicle id="v34" depart="178.95" route="sr1065" type="CarDefault" departLane="random" />
	<vehicle id="v231" depart="181" route="sr1066" type="CarDefault" departLane="random" />
	<vehicle id="v232" depart="181" route="sr1066" type="CarDefault" departLane="random" />
	<vehicle id="v666" depart="181.13" route="sr1068" type="CarDefault" departLane="random" />
	<vehicle id="v518" depart="181.69" route="sr1067" type="CarDefault" departLane="random" />
	<vehicle id="v234" depart="183" route="sr1066" type="CarDefault" departLane="random" />
	<vehicle id="v35" depart="184.21" route="sr1065" type="CarDefault" departLane="random" />
	<vehicle id="v667" depart="184.91" route="sr1068" type="CarDefault" departLane="random" />
	<vehicle id="v226" depart="185" route="sr1066" type="CarDefault" departLane="random" />
	<vehicle id="v233" depart="185" route="sr1066" type="CarDefault" departLane="random" />
	<vehicle id="v519" depart="185.92" route="sr1067" type="CarDefault" departLane="random" />
	<vehicle id="v224" depart="188" route="sr1066" type="CarDefault" departLane="random" />
	<vehicle id="v668" depart="188.68" route="sr1068" type="CarDefault" departLane="random" />
	<vehicle id="v223" depart="189" route="sr1066" type="CarDefault" departLane="random" />
	<vehicle id="v228" depart="189" route="sr1066" type="CarDefault" departLane="random" />
	<vehicle id="v36" depart="189.47" route="sr1065" type="CarDefault" departLane="random" />
	<vehicle id="v227" depart="190" route="sr1066" type="CarDefault" departLane="random" />
	<vehicle id="v520" depart="190.14" route="sr1067" type="CarDefault" departLane="random" />
	<vehicle id="v669" depart="192.45" route="sr1068" type="CarDefault" departLane="random" />
	<vehicle id="v521" depart="194.37" route="sr1067" type="CarDefault" departLane="random" />
	<vehicle id="v37" depart="194.74" route="sr1065" type="CarDefault" departLane="random" />
	<vehicle id="v225" depart="196" route="sr1066" type="CarDefault" departLane="random" />
	<vehicle id="v229" depart="196" route="sr1066" type="CarDefault" departLane="random" />
	<vehicle id="v670" depart="196.23" route="sr1068" type="CarDefault" departLane="random" />
	<vehicle id="v230" depart="198" route="sr1066" type="CarDefault" departLane="random" />
	<vehicle id="v522" depart="198.59" route="sr1067" type="CarDefault" departLane="random" />
	<vehicle id="v38" depart="200.0" route="sr1065" type="CarDefault" departLane="random" />
	<vehicle id="v671" depart="200.0" route="sr1068" type="CarDefault" departLane="random" />
	<vehicle id="v236" depart="202" route="sr1066" type="CarDefault" departLane="random" />
	<vehicle id="v241" depart="202" route="sr1066" type="CarDefault" departLane="random" />
	<vehicle id="v523" depart="202.82" route="sr1067" type="CarDefault" departLane="random" />
	<vehicle id="v672" depart="203.77" route="sr1068" type="CarDefault" departLane="random" />
	<vehicle id="v243" depart="205" route="sr1066" type="CarDefault" departLane="random" />
	<vehicle id="v39" depart="205.26" route="sr1065" type="CarDefault" departLane="random" />
	<vehicle id="v246" depart="206" route="sr1066" type="CarDefault" departLane="random" />
	<vehicle id="v524" depart="207.04" route="sr1067" type="CarDefault" departLane="random" />
	<vehicle id="v673" depart="207.55" route="sr1068" type="CarDefault" departLane="random" />
	<vehicle id="v240" depart="210" route="sr1066" type="CarDefault" departLane="random" />
	<vehicle id="v40" depart="210.53" route="sr1065" type="CarDefault" departLane="random" />
	<vehicle id="v242" depart="211" route="sr1066" type="CarDefault" departLane="random" />
	<vehicle id="v525" depart="211.27" route="sr1067" type="CarDefault" departLane="random" />
	<vehicle id="v674" depart="211.32" route="sr1068" type="CarDefault" departLane="random" />
	<vehicle id="v245" depart="212" route="sr1066" type="CarDefault" departLane="random" />
	<vehicle id="v235" depart="214" route="sr1066" type="CarDefault" departLane="random" />
	<vehicle id="v238" depart="214" route="sr1066" type="CarDefault" departLane="random" />
	<vehicle id="v244" depart="214" route="sr1066" type="CarDefault" departLane="random" />
	<vehicle id="v675" depart="215.09" route="sr1068" type="CarDefault" departLane="random" />
	<vehicle id="v526" depart="215.49" route="sr1067" type="CarDefault" departLane="random" />
	<vehicle id="v41" depart="215.79" route="sr1065" type="CarDefault" departLane="random" />
	<vehicle id="v237" depart="217" route="sr1066" type="CarDefault" departLane="random" />
	<vehicle id="v239" depart="217" route="sr1066" type="CarDefault" departLane="random" />
	<vehicle id="v676" depart="218.87" route="sr1068" type="CarDefault" departLane="random" />
	<vehicle id="v527" depart="219.72" route="sr1067" type="CarDefault" departLane="random" />
	<vehicle id="v250" depart="220" route="sr1066" type="CarDefault" departLane="random" />
	<vehicle id="v247" depart="221" route="sr1066" type="CarDefault" departLane="random" />
	<vehicle id="v42" depart="221.05" route="sr1065" type="CarDefault" departLane="random" />
	<vehicle id="v677" depart="222.64" route="sr1068" type="CarDefault" departLane="random" />
	<vehicle id="v528" depart="223.94" route="sr1067" type="CarDefault" departLane="random" />
	<vehicle id="v254" depart="225" route="sr1066" type="CarDefault" departLane="random" />
	<vehicle id="v43" depart="226.32" route="sr1065" type="CarDefault" departLane="random" />
	<vehicle id="v678" depart="226.42" route="sr1068" type="CarDefault" departLane="random" />
	<vehicle id="v256" depart="227" route="sr1066" type="CarDefault" departLane="random" />
	<vehicle id="v529" depart="228.17" route="sr1067" type="CarDefault" departLane="random" />
	<vehicle id="v257" depart="230" route="sr1066" type="CarDefault" departLane="random" />
	<vehicle id="v679" depart="230.19" route="sr1068" type="CarDefault" departLane="random" />
	<vehicle id="v248" depart="231" route="sr1066" type="CarDefault" departLane="random" />
	<vehicle id="v252" depart="231" route="sr1066" type="CarDefault" departLane="random" />
	<vehicle id="v253" depart="231" route="sr1066" type="CarDefault" departLane="random" />
	<vehicle id="v44" depart="231.58" route="sr1065" type="CarDefault" departLane="random" />
	<vehicle id="v530" depart="232.39" route="sr1067" type="CarDefault" departLane="random" />
	<vehicle id="v680" depart="233.96" route="sr1068" type="CarDefault" departLane="random" />
	<vehicle id="v251" depart="234" route="sr1066" type="CarDefault" departLane="random" />
	<vehicle id="v255" depart="234" route="sr1066" type="CarDefault" departLane="random" />
	<vehicle id="v249" depart="235" route="sr1066" type="CarDefault" departLane="random" />
	<vehicle id="v531" depart="236.62" route="sr1067" type="CarDefault" departLane="random" />
	<vehicle id="v45" depart="236.84" route="sr1065" type="CarDefault" departLane="random" />
	<vehicle id="v681" depart="237.74" route="sr1068" type="CarDefault" departLane="random" />
	<vehicle id="v258" depart="238" route="sr1066" type="CarDefault" departLane="random" />
	<vehicle id="v261" depart="240" route="sr1066" type="CarDefault" departLane="random" />
	<vehicle id="v532" depart="240.85" route="sr1067" type="CarDefault" departLane="random" />
	<vehicle id="v682" depart="241.51" route="sr1068" type="CarDefault" departLane="random" />
	<vehicle id="v46" depart="242.11" route="sr1065" type="CarDefault" departLane="random" />
	<vehicle id="v264" depart="243" route="sr1066" type="CarDefault" departLane="random" />
	<vehicle id="v533" depart="245.07" route="sr1067" type="CarDefault" departLane="random" />
	<vehicle id="v683" depart="245.28" route="sr1068" type="CarDefault" departLane="random" />
	<vehicle id="v269" depart="246" route="sr1066" type="CarDefault" departLane="random" />
	<vehicle id="v47" depart="247.37" route="sr1065" type="CarDefault" departLane="random" />
	<vehicle id="v270" depart="248" route="sr1066" type="CarDefault" departLane="random" />
	<vehicle id="v267" depart="249" route="sr1066" type="CarDefault" departLane="random" />
	<vehicle id="v684" depart="249.06" route="sr1068" type="CarDefault" departLane="random" />