<?xml version="1.0" encoding="UTF-8"?>

<!-- generated on 2022-10-07 16:59:04 by Eclipse SUMO netconvert Version 1.12.0
<configuration xmlns:xsi="http://www.w3.org/2001/XMLSchema-instance" xsi:noNamespaceSchemaLocation="http://sumo.dlr.de/xsd/netconvertConfiguration.xsd">

    <input>
        <sumo-net-file value="/home/svadlmat/UTC/utc/data/maps/sumo/Sydney.net.xml"/>
    </input>

    <output>
        <output-file value="/home/svadlmat/UTC/utc/data/scenarios/16_25_39_test/maps/networks/16_25_39_test_similarity_average_similarity_sg.net.xml"/>
    </output>

    <processing>
        <geometry.min-radius.fix.railways value="false"/>
        <geometry.max-grade.fix value="false"/>
        <offset.disable-normalization value="true"/>
        <lefthand value="false"/>
    </processing>

    <edge_removal>
        <keep-edges.explicit value="14,340,960,294,333,286,53,125,975,970,1003,448,237,515,867,341,373,1041,723,144,946,571,278,924,129,46,93,511,967,131,866,643,12,15,82,875,627,375,633,423,387,399,708,710,716,377,484,858,290,339,985,796,717,798,730,20,928,366,769,201,512,210,289,305,331,527,262,469,189,500,744,411,310,338,770,52,768,1020,891,915,641,253,898,864,557,410,211,202,760,829,1007,942,950,212,385,922,87,614,541,808,1023,233,44,549,1024,726,482,989,746,89,107,489,587,876,956,945,707,236,311,428,977,884,619,92,214,7,969,312,874,446,937,254,711,507,978,97,502,1022,371,283,265,929,1019,563,859,6,774,1013,630,50,714,647,203,509,404,445,959,269,957,449,342,424,1017,628,608,923,407,712,56,944,230,249,123,584,634,872,213,427,709,250,21,200,9,335,853,721,48,745,1002,890,480,228,252,126,10,51,65,955,267,215,1027,217,976,55,748,17,1018,292,334,797,870,244,931,792,578,854,266,406,248,135,345,479,197,961,498,488,869,886,644,743,83,935,232,811,772,591,759,425,5,968,280,1012,997,468,984,719,505,988,487,285,18,485,631,806,499,279,635,16,268,180,133,245,332,38,787,981,1058,317,863,749,284,933,795,807,112,400,216,763,741,747,972,758,1026,264,447,513,766,594,791,295,49,384,934,535,432,520,727,865,1038,1005,11,315,54,871,367,382,508,426,130,127,307,403,645,316,136,47,1006,943,504,618,699,990,926,788,706,483,812,762,1021,742,526,592,132,111,134,878,885,725,516,585,525,486,471,1004,124,958,595,636,430,415,932,19"/>
    </edge_removal>

    <junctions>
        <no-turnarounds value="true"/>
        <junctions.corner-detail value="5"/>
        <junctions.limit-turn-speed value="5.5"/>
        <rectangular-lane-cut value="false"/>
    </junctions>

    <pedestrian>
        <walkingareas value="false"/>
    </pedestrian>

    <report>
        <aggregate-warnings value="5"/>
    </report>

</configuration>
-->

<net version="1.9" junctionCornerDetail="5" limitTurnSpeed="5.50" xmlns:xsi="http://www.w3.org/2001/XMLSchema-instance" xsi:noNamespaceSchemaLocation="http://sumo.dlr.de/xsd/net_file.xsd">

    <location netOffset="-336586.08,3754670.31" convBoundary="0.00,49.91,2093.22,2154.71" origBoundary="151.232525,-33.920080,151.266296,-33.899237" projParameter="+proj=utm +zone=56 +ellps=WGS84 +datum=WGS84 +units=m +no_defs"/>

    <type id="highway.bridleway" priority="1" numLanes="1" speed="2.78" allow="pedestrian" oneway="1" width="2.00"/>
    <type id="highway.bus_guideway" priority="1" numLanes="1" speed="27.78" allow="bus" oneway="1"/>
    <type id="highway.cycleway" priority="1" numLanes="1" speed="8.33" allow="bicycle" oneway="0" width="1.00"/>
    <type id="highway.footway" priority="1" numLanes="1" speed="2.78" allow="pedestrian" oneway="1" width="2.00"/>
    <type id="highway.ford" priority="1" numLanes="1" speed="2.78" allow="army" oneway="0"/>
    <type id="highway.living_street" priority="2" numLanes="1" speed="2.78" disallow="tram rail_urban rail rail_electric rail_fast ship" oneway="0"/>
    <type id="highway.motorway" priority="14" numLanes="2" speed="39.44" allow="private emergency authority army vip passenger hov taxi bus coach delivery truck trailer motorcycle evehicle custom1 custom2" oneway="1"/>
    <type id="highway.motorway_link" priority="9" numLanes="1" speed="22.22" allow="private emergency authority army vip passenger hov taxi bus coach delivery truck trailer motorcycle evehicle custom1 custom2" oneway="1"/>
    <type id="highway.path" priority="1" numLanes="1" speed="2.78" allow="pedestrian bicycle" oneway="0" width="2.00"/>
    <type id="highway.pedestrian" priority="1" numLanes="1" speed="2.78" allow="pedestrian" oneway="1" width="2.00"/>
    <type id="highway.primary" priority="12" numLanes="2" speed="27.78" disallow="tram rail_urban rail rail_electric rail_fast ship" oneway="0"/>
    <type id="highway.primary_link" priority="7" numLanes="1" speed="22.22" disallow="tram rail_urban rail rail_electric rail_fast ship" oneway="0"/>
    <type id="highway.raceway" priority="15" numLanes="2" speed="83.33" allow="vip" oneway="0"/>
    <type id="highway.residential" priority="3" numLanes="1" speed="13.89" disallow="tram rail_urban rail rail_electric rail_fast ship" oneway="0"/>
    <type id="highway.secondary" priority="11" numLanes="1" speed="27.78" disallow="tram rail_urban rail rail_electric rail_fast ship" oneway="0"/>
    <type id="highway.secondary_link" priority="6" numLanes="1" speed="22.22" disallow="tram rail_urban rail rail_electric rail_fast ship" oneway="0"/>
    <type id="highway.service" priority="1" numLanes="1" speed="5.56" allow="pedestrian delivery bicycle" oneway="0"/>
    <type id="highway.stairs" priority="1" numLanes="1" speed="1.39" allow="pedestrian" oneway="1" width="2.00"/>
    <type id="highway.step" priority="1" numLanes="1" speed="1.39" allow="pedestrian" oneway="1" width="2.00"/>
    <type id="highway.steps" priority="1" numLanes="1" speed="1.39" allow="pedestrian" oneway="1" width="2.00"/>
    <type id="highway.tertiary" priority="10" numLanes="1" speed="22.22" disallow="tram rail_urban rail rail_electric rail_fast ship" oneway="0"/>
    <type id="highway.tertiary_link" priority="5" numLanes="1" speed="22.22" disallow="tram rail_urban rail rail_electric rail_fast ship" oneway="0"/>
    <type id="highway.track" priority="1" numLanes="1" speed="5.56" allow="pedestrian motorcycle moped bicycle" oneway="0"/>
    <type id="highway.trunk" priority="13" numLanes="2" speed="27.78" disallow="pedestrian bicycle tram rail_urban rail rail_electric rail_fast ship" oneway="0"/>
    <type id="highway.trunk_link" priority="8" numLanes="1" speed="22.22" disallow="pedestrian bicycle tram rail_urban rail rail_electric rail_fast ship" oneway="0"/>
    <type id="highway.unclassified" priority="4" numLanes="1" speed="13.89" disallow="tram rail_urban rail rail_electric rail_fast ship" oneway="0"/>
    <type id="highway.unsurfaced" priority="1" numLanes="1" speed="8.33" disallow="tram rail_urban rail rail_electric rail_fast ship" oneway="0"/>
    <type id="railway.highspeed" priority="21" numLanes="1" speed="69.44" allow="rail_fast" oneway="1"/>
    <type id="railway.light_rail" priority="19" numLanes="1" speed="27.78" allow="rail_urban" oneway="1"/>
    <type id="railway.preserved" priority="16" numLanes="1" speed="27.78" allow="rail" oneway="1"/>
    <type id="railway.rail" priority="20" numLanes="1" speed="44.44" allow="rail" oneway="1"/>
    <type id="railway.subway" priority="18" numLanes="1" speed="27.78" allow="rail_urban" oneway="1"/>
    <type id="railway.tram" priority="17" numLanes="1" speed="13.89" allow="tram" oneway="1"/>

    <edge id=":10_0" function="internal">
        <lane id=":10_0_0" index="0" disallow="tram rail_urban rail rail_electric rail_fast ship" speed="4.43" length="6.48" shape="2087.99,1333.96 2089.93,1332.90 2090.49,1332.03 2089.70,1331.37 2087.54,1330.92"/>
    </edge>
    <edge id=":102_0" function="internal">
        <lane id=":102_0_0" index="0" disallow="tram rail_urban rail rail_electric rail_fast ship" speed="3.90" length="2.63" shape="1138.29,482.71 1138.98,482.50 1139.43,482.12 1139.64,481.57 1139.61,480.84"/>
    </edge>
    <edge id=":104_0" function="internal">
        <lane id=":104_0_0" index="0" disallow="tram rail_urban rail rail_electric rail_fast ship" speed="13.89" length="11.20" shape="1533.88,388.58 1532.09,377.52"/>
    </edge>
    <edge id=":104_1" function="internal">
        <lane id=":104_1_0" index="0" disallow="tram rail_urban rail rail_electric rail_fast ship" speed="3.65" length="1.44" shape="1533.88,388.58 1534.48,387.26"/>
    </edge>
    <edge id=":104_6" function="internal">
        <lane id=":104_6_0" index="0" disallow="tram rail_urban rail rail_electric rail_fast ship" speed="3.65" length="3.23" shape="1534.48,387.26 1535.20,386.74 1536.06,387.01 1537.04,388.06"/>
    </edge>
    <edge id=":104_2" function="internal">
        <lane id=":104_2_0" index="0" disallow="tram rail_urban rail rail_electric rail_fast ship" speed="13.89" length="11.19" shape="1535.25,377.01 1537.04,388.06"/>
    </edge>
    <edge id=":104_3" function="internal">
        <lane id=":104_3_0" index="0" disallow="tram rail_urban rail rail_electric rail_fast ship" speed="3.65" length="1.44" shape="1535.25,377.01 1534.65,378.32"/>
    </edge>
    <edge id=":104_7" function="internal">
        <lane id=":104_7_0" index="0" disallow="tram rail_urban rail rail_electric rail_fast ship" speed="3.65" length="3.23" shape="1534.65,378.32 1533.93,378.85 1533.07,378.58 1532.09,377.52"/>
    </edge>
    <edge id=":104_4" function="internal">
        <lane id=":104_4_0" index="0" disallow="tram rail_urban rail rail_electric rail_fast ship" speed="6.50" length="9.03" shape="1527.44,383.92 1529.81,383.20 1531.38,381.89 1532.14,380.00 1532.09,377.52"/>
    </edge>
    <edge id=":104_5" function="internal">
        <lane id=":104_5_0" index="0" disallow="tram rail_urban rail rail_electric rail_fast ship" speed="7.34" length="11.73" shape="1527.44,383.92 1531.31,383.67 1534.19,384.28 1536.10,385.74 1537.04,388.06"/>
    </edge>
    <edge id=":107_0" function="internal">
        <lane id=":107_0_0" index="0" disallow="tram rail_urban rail rail_electric rail_fast ship" speed="13.89" length="0.30" shape="947.76,196.75 948.05,196.69"/>
    </edge>
    <edge id=":109_0" function="internal">
        <lane id=":109_0_0" index="0" disallow="tram rail_urban rail rail_electric rail_fast ship" speed="3.90" length="2.59" shape="1134.48,453.06 1134.45,452.35 1134.65,451.80 1135.09,451.42 1135.77,451.19"/>
    </edge>
    <edge id=":112_0" function="internal">
        <lane id=":112_0_0" index="0" disallow="tram rail_urban rail rail_electric rail_fast ship" speed="6.48" length="4.18" shape="1406.41,307.24 1406.32,304.76 1406.93,303.18"/>
    </edge>
    <edge id=":112_2" function="internal">
        <lane id=":112_2_0" index="0" disallow="tram rail_urban rail rail_electric rail_fast ship" speed="6.48" length="4.86" shape="1406.93,303.18 1407.05,302.86 1408.60,301.54 1410.97,300.79"/>
    </edge>
    <edge id=":112_1" function="internal">
        <lane id=":112_1_0" index="0" disallow="tram rail_urban rail rail_electric rail_fast ship" speed="13.89" length="11.18" shape="1399.92,302.53 1410.97,300.79"/>
    </edge>
    <edge id=":113_0" function="internal">
        <lane id=":113_0_0" index="0" disallow="tram rail_urban rail rail_electric rail_fast ship" speed="27.78" length="0.30" shape="1489.79,115.20 1489.75,114.90"/>
    </edge>
    <edge id=":116_0" function="internal">
        <lane id=":116_0_0" index="0" disallow="tram rail_urban rail rail_electric rail_fast ship" speed="13.89" length="0.31" shape="444.09,626.21 444.02,625.90"/>
    </edge>
    <edge id=":116_1" function="internal">
        <lane id=":116_1_0" index="0" disallow="tram rail_urban rail rail_electric rail_fast ship" speed="3.65" length="2.34" shape="444.09,626.21 444.61,624.87 445.31,624.31"/>
    </edge>
    <edge id=":116_4" function="internal">
        <lane id=":116_4_0" index="0" disallow="tram rail_urban rail rail_electric rail_fast ship" speed="3.65" length="2.34" shape="445.31,624.31 446.18,624.53 447.21,625.53"/>
    </edge>
    <edge id=":116_2" function="internal">
        <lane id=":116_2_0" index="0" disallow="tram rail_urban rail rail_electric rail_fast ship" speed="13.89" length="0.26" shape="447.16,625.27 447.21,625.53"/>
    </edge>
    <edge id=":116_3" function="internal">
        <lane id=":116_3_0" index="0" disallow="tram rail_urban rail rail_electric rail_fast ship" speed="3.65" length="2.34" shape="447.16,625.27 446.61,626.61 445.91,627.16"/>
    </edge>
    <edge id=":116_5" function="internal">
        <lane id=":116_5_0" index="0" disallow="tram rail_urban rail rail_electric rail_fast ship" speed="3.65" length="2.34" shape="445.91,627.16 445.04,626.92 444.02,625.90"/>
    </edge>
    <edge id=":117_0" function="internal">
        <lane id=":117_0_0" index="0" disallow="tram rail_urban rail rail_electric rail_fast ship" speed="6.37" length="9.04" shape="1470.06,644.17 1469.31,641.78 1467.98,640.26 1466.07,639.60 1463.58,639.81"/>
    </edge>
    <edge id=":117_1" function="internal">
        <lane id=":117_1_0" index="0" disallow="tram rail_urban rail rail_electric rail_fast ship" speed="8.34" length="14.49" shape="1470.06,644.17 1469.96,640.20 1471.10,637.06 1473.46,634.76 1477.06,633.29"/>
    </edge>
    <edge id=":117_2" function="internal">
        <lane id=":117_2_0" index="0" disallow="tram rail_urban rail rail_electric rail_fast ship" speed="3.65" length="4.67" shape="1470.06,644.17 1470.65,642.85 1471.38,642.33 1472.23,642.60 1473.22,643.65"/>
    </edge>
    <edge id=":117_3" function="internal">
        <lane id=":117_3_0" index="0" disallow="tram rail_urban rail rail_electric rail_fast ship" speed="27.78" length="14.60" shape="1462.86,636.69 1477.06,633.29"/>
    </edge>
    <edge id=":117_4" function="internal">
        <lane id=":117_4_0" index="0" disallow="tram rail_urban rail rail_electric rail_fast ship" speed="7.89" length="14.45" shape="1462.86,636.69 1466.85,636.36 1469.90,637.41 1472.02,639.84 1473.22,643.65"/>
    </edge>
    <edge id=":117_5" function="internal">
        <lane id=":117_5_0" index="0" disallow="tram rail_urban rail rail_electric rail_fast ship" speed="3.65" length="4.67" shape="1462.86,636.69 1464.21,637.20 1464.78,637.89 1464.57,638.76 1463.58,639.81"/>
    </edge>
    <edge id=":120_0" function="internal">
        <lane id=":120_0_0" index="0" disallow="tram rail_urban rail rail_electric rail_fast ship" speed="13.89" length="0.30" shape="1986.71,716.57 1986.48,716.39"/>
    </edge>
    <edge id=":124_0" function="internal">
        <lane id=":124_0_0" index="0" disallow="tram rail_urban rail rail_electric rail_fast ship" speed="27.78" length="0.30" shape="1389.74,676.37 1389.48,676.53"/>
    </edge>
    <edge id=":124_1" function="internal">
        <lane id=":124_1_0" index="0" disallow="tram rail_urban rail rail_electric rail_fast ship" speed="3.65" length="2.34" shape="1389.74,676.37 1388.30,676.35 1387.52,675.90"/>
    </edge>
    <edge id=":124_4" function="internal">
        <lane id=":124_4_0" index="0" disallow="tram rail_urban rail rail_electric rail_fast ship" speed="3.65" length="2.34" shape="1387.52,675.90 1387.42,675.01 1387.99,673.69"/>
    </edge>
    <edge id=":124_2" function="internal">
        <lane id=":124_2_0" index="0" disallow="tram rail_urban rail rail_electric rail_fast ship" speed="27.78" length="0.29" shape="1387.75,673.85 1387.99,673.69"/>
    </edge>
    <edge id=":124_3" function="internal">
        <lane id=":124_3_0" index="0" disallow="tram rail_urban rail rail_electric rail_fast ship" speed="3.65" length="2.34" shape="1387.75,673.85 1389.19,673.87 1389.96,674.32"/>
    </edge>
    <edge id=":124_5" function="internal">
        <lane id=":124_5_0" index="0" disallow="tram rail_urban rail rail_electric rail_fast ship" speed="3.65" length="2.34" shape="1389.96,674.32 1390.06,675.21 1389.48,676.53"/>
    </edge>
    <edge id=":127_0" function="internal">
        <lane id=":127_0_0" index="0" disallow="tram rail_urban rail rail_electric rail_fast ship" speed="20.84" length="0.31" shape="1528.42,354.77 1528.38,354.46"/>
    </edge>
    <edge id=":127_1" function="internal">
        <lane id=":127_1_0" index="0" disallow="tram rail_urban rail rail_electric rail_fast ship" speed="3.65" length="2.34" shape="1528.42,354.77 1529.02,353.46 1529.75,352.94"/>
    </edge>
    <edge id=":127_4" function="internal">
        <lane id=":127_4_0" index="0" disallow="tram rail_urban rail rail_electric rail_fast ship" speed="3.65" length="2.34" shape="1529.75,352.94 1530.60,353.20 1531.58,354.26"/>
    </edge>
    <edge id=":127_2" function="internal">
        <lane id=":127_2_0" index="0" disallow="tram rail_urban rail rail_electric rail_fast ship" speed="20.84" length="0.28" shape="1531.54,353.99 1531.58,354.26"/>
    </edge>
    <edge id=":127_3" function="internal">
        <lane id=":127_3_0" index="0" disallow="tram rail_urban rail rail_electric rail_fast ship" speed="3.65" length="2.34" shape="1531.54,353.99 1530.93,355.29 1530.20,355.81"/>
    </edge>
    <edge id=":127_5" function="internal">
        <lane id=":127_5_0" index="0" disallow="tram rail_urban rail rail_electric rail_fast ship" speed="3.65" length="2.34" shape="1530.20,355.81 1529.35,355.53 1528.38,354.46"/>
    </edge>
    <edge id=":129_0" function="internal">
        <lane id=":129_0_0" index="0" disallow="tram rail_urban rail rail_electric rail_fast ship" speed="22.22" length="0.10" shape="1916.35,1532.26 1916.41,1532.31"/>
    </edge>
    <edge id=":129_1" function="internal">
        <lane id=":129_1_0" index="0" disallow="tram rail_urban rail rail_electric rail_fast ship" speed="3.65" length="2.34" shape="1916.35,1532.26 1915.98,1530.87 1916.21,1530.00"/>
    </edge>
    <edge id=":129_4" function="internal">
        <lane id=":129_4_0" index="0" disallow="tram rail_urban rail rail_electric rail_fast ship" speed="3.65" length="2.34" shape="1916.21,1530.00 1917.04,1529.67 1918.47,1529.86"/>
    </edge>
    <edge id=":129_2" function="internal">
        <lane id=":129_2_0" index="0" disallow="tram rail_urban rail rail_electric rail_fast ship" speed="22.22" length="0.10" shape="1918.41,1529.81 1918.47,1529.86"/>
    </edge>
    <edge id=":129_3" function="internal">
        <lane id=":129_3_0" index="0" disallow="tram rail_urban rail rail_electric rail_fast ship" speed="3.65" length="2.34" shape="1918.41,1529.81 1918.85,1531.18 1918.66,1532.06"/>
    </edge>
    <edge id=":129_5" function="internal">
        <lane id=":129_5_0" index="0" disallow="tram rail_urban rail rail_electric rail_fast ship" speed="3.65" length="2.34" shape="1918.66,1532.06 1917.85,1532.43 1916.41,1532.31"/>
    </edge>
    <edge id=":130_0" function="internal">
        <lane id=":130_0_0" index="0" disallow="tram rail_urban rail rail_electric rail_fast ship" speed="13.89" length="1.41" shape="1836.63,1084.00 1836.40,1084.34 1836.23,1084.57 1836.02,1084.77 1835.70,1085.04"/>
    </edge>
    <edge id=":130_1" function="internal">
        <lane id=":130_1_0" index="0" disallow="tram rail_urban rail rail_electric rail_fast ship" speed="3.65" length="1.44" shape="1836.63,1084.00 1835.31,1084.56"/>
    </edge>
    <edge id=":130_4" function="internal">
        <lane id=":130_4_0" index="0" disallow="tram rail_urban rail rail_electric rail_fast ship" speed="3.65" length="3.23" shape="1835.31,1084.56 1834.42,1084.45 1833.97,1083.68 1833.96,1082.24"/>
    </edge>
    <edge id=":130_2" function="internal">
        <lane id=":130_2_0" index="0" disallow="tram rail_urban rail rail_electric rail_fast ship" speed="13.89" length="0.47" shape="1833.65,1082.58 1833.76,1082.49 1833.83,1082.43 1833.89,1082.35 1833.96,1082.24"/>
    </edge>
    <edge id=":130_3" function="internal">
        <lane id=":130_3_0" index="0" disallow="tram rail_urban rail rail_electric rail_fast ship" speed="3.65" length="1.44" shape="1833.65,1082.58 1835.09,1082.43"/>
    </edge>
    <edge id=":130_5" function="internal">
        <lane id=":130_5_0" index="0" disallow="tram rail_urban rail rail_electric rail_fast ship" speed="3.65" length="3.23" shape="1835.09,1082.43 1835.91,1082.79 1836.11,1083.66 1835.70,1085.04"/>
    </edge>
    <edge id=":132_0" function="internal">
        <lane id=":132_0_0" index="0" disallow="tram rail_urban rail rail_electric rail_fast ship" speed="27.78" length="15.37" shape="1767.63,1122.97 1765.23,1107.79"/>
    </edge>
    <edge id=":132_1" function="internal">
        <lane id=":132_1_0" index="0" disallow="tram rail_urban rail rail_electric rail_fast ship" speed="9.75" length="17.62" shape="1767.63,1122.97 1767.82,1119.31 1769.63,1116.00 1773.04,1113.04 1778.06,1110.42"/>
    </edge>
    <edge id=":132_2" function="internal">
        <lane id=":132_2_0" index="0" disallow="tram rail_urban rail rail_electric rail_fast ship" speed="3.65" length="4.67" shape="1767.63,1122.97 1768.23,1121.66 1768.96,1121.14 1769.81,1121.41 1770.79,1122.47"/>
    </edge>
    <edge id=":132_3" function="internal">
        <lane id=":132_3_0" index="0" disallow="tram rail_urban rail rail_electric rail_fast ship" speed="8.55" length="13.36" shape="1779.30,1113.37 1775.27,1115.41 1772.50,1117.60 1771.01,1119.96 1770.79,1122.47"/>
    </edge>
    <edge id=":132_4" function="internal">
        <lane id=":132_4_0" index="0" disallow="tram rail_urban rail rail_electric rail_fast ship" speed="8.33" length="5.97" shape="1779.30,1113.37 1773.78,1114.97 1773.55,1114.95"/>
    </edge>
    <edge id=":132_5" function="internal">
        <lane id=":132_5_0" index="0" disallow="tram rail_urban rail rail_electric rail_fast ship" speed="3.65" length="1.44" shape="1779.30,1113.37 1777.88,1113.10"/>
    </edge>
    <edge id=":132_12" function="internal">
        <lane id=":132_12_0" index="0" disallow="tram rail_urban rail rail_electric rail_fast ship" speed="8.33" length="12.34" shape="1773.55,1114.95 1769.60,1114.57 1766.74,1112.17 1765.23,1107.79"/>
    </edge>
    <edge id=":132_13" function="internal">
        <lane id=":132_13_0" index="0" disallow="tram rail_urban rail rail_electric rail_fast ship" speed="3.65" length="3.23" shape="1777.88,1113.10 1777.20,1112.52 1777.26,1111.62 1778.06,1110.42"/>
    </edge>
    <edge id=":132_6" function="internal">
        <lane id=":132_6_0" index="0" disallow="tram rail_urban rail rail_electric rail_fast ship" speed="6.05" length="9.07" shape="1771.55,1106.79 1772.31,1109.25 1773.65,1110.68 1775.57,1111.07 1778.06,1110.42"/>
    </edge>
    <edge id=":132_7" function="internal">
        <lane id=":132_7_0" index="0" disallow="tram rail_urban rail rail_electric rail_fast ship" speed="27.78" length="15.77" shape="1771.55,1106.79 1771.84,1111.82 1771.33,1115.69 1770.75,1119.03 1770.79,1122.47"/>
    </edge>
    <edge id=":132_8" function="internal">
        <lane id=":132_8_0" index="0" disallow="tram rail_urban rail rail_electric rail_fast ship" speed="3.65" length="4.67" shape="1768.39,1107.29 1767.79,1108.60 1767.06,1109.12 1766.21,1108.85 1765.23,1107.79"/>
    </edge>
    <edge id=":132_9" function="internal">
        <lane id=":132_9_0" index="0" disallow="tram rail_urban rail rail_electric rail_fast ship" speed="7.28" length="10.85" shape="1760.81,1116.44 1763.17,1115.39 1764.70,1113.60 1765.38,1111.06 1765.23,1107.79"/>
    </edge>
    <edge id=":132_10" function="internal">
        <lane id=":132_10_0" index="0" disallow="tram rail_urban rail rail_electric rail_fast ship" speed="15.28" length="18.29" shape="1760.81,1116.44 1764.90,1115.27 1769.53,1113.71 1774.10,1112.01 1778.06,1110.42"/>
    </edge>
    <edge id=":132_11" function="internal">
        <lane id=":132_11_0" index="0" disallow="tram rail_urban rail rail_electric rail_fast ship" speed="7.61" length="10.32" shape="1760.81,1116.44 1764.69,1116.03 1767.65,1116.89 1769.68,1119.04 1769.80,1119.40"/>
    </edge>
    <edge id=":132_14" function="internal">
        <lane id=":132_14_0" index="0" disallow="tram rail_urban rail rail_electric rail_fast ship" speed="7.61" length="3.23" shape="1769.80,1119.40 1770.79,1122.47"/>
    </edge>
    <edge id=":133_0" function="internal">
        <lane id=":133_0_0" index="0" disallow="tram rail_urban rail rail_electric rail_fast ship" speed="13.89" length="0.20" shape="1930.98,970.09 1930.92,970.10 1930.88,970.11 1930.85,970.12 1930.79,970.13"/>
    </edge>
    <edge id=":133_1" function="internal">
        <lane id=":133_1_0" index="0" disallow="tram rail_urban rail rail_electric rail_fast ship" speed="3.65" length="2.34" shape="1930.98,970.09 1929.67,969.48 1929.15,968.76"/>
    </edge>
    <edge id=":133_4" function="internal">
        <lane id=":133_4_0" index="0" disallow="tram rail_urban rail rail_electric rail_fast ship" speed="3.65" length="2.34" shape="1929.15,968.76 1929.43,967.90 1930.49,966.93"/>
    </edge>
    <edge id=":133_2" function="internal">
        <lane id=":133_2_0" index="0" disallow="tram rail_urban rail rail_electric rail_fast ship" speed="13.89" length="0.59" shape="1929.91,967.06 1930.08,967.01 1930.20,966.98 1930.32,966.96 1930.49,966.93"/>
    </edge>
    <edge id=":133_3" function="internal">
        <lane id=":133_3_0" index="0" disallow="tram rail_urban rail rail_electric rail_fast ship" speed="3.65" length="2.34" shape="1929.91,967.06 1931.29,967.50 1931.89,968.16"/>
    </edge>
    <edge id=":133_5" function="internal">
        <lane id=":133_5_0" index="0" disallow="tram rail_urban rail rail_electric rail_fast ship" speed="3.65" length="2.34" shape="1931.89,968.16 1931.72,969.03 1930.79,970.13"/>
    </edge>
    <edge id=":134_0" function="internal">
        <lane id=":134_0_0" index="0" disallow="tram rail_urban rail rail_electric rail_fast ship" speed="18.05" length="5.19" shape="2070.65,1329.19 2069.59,1330.29 2068.76,1330.93 2067.82,1331.45 2066.48,1332.20"/>
    </edge>
    <edge id=":135_0" function="internal">
        <lane id=":135_0_0" index="0" disallow="tram rail_urban rail rail_electric rail_fast ship" speed="3.90" length="2.58" shape="1837.42,1205.36 1837.21,1204.69 1836.83,1204.25 1836.29,1204.03 1835.58,1204.05"/>
    </edge>
    <edge id=":136_0" function="internal">
        <lane id=":136_0_0" index="0" disallow="tram rail_urban rail rail_electric rail_fast ship" speed="22.23" length="7.72" shape="1763.21,1094.62 1761.86,1087.02"/>
    </edge>
    <edge id=":136_1" function="internal">
        <lane id=":136_1_0" index="0" disallow="tram rail_urban rail rail_electric rail_fast ship" speed="22.23" length="8.34" shape="1764.99,1086.37 1765.98,1088.69 1767.35,1090.01 1768.68,1091.33 1769.54,1093.67"/>
        <lane id=":136_1_1" index="1" disallow="tram rail_urban rail rail_electric rail_fast ship" speed="22.23" length="8.34" shape="1764.99,1086.37 1766.38,1094.14"/>
    </edge>
    <edge id=":137_0" function="internal">
        <lane id=":137_0_0" index="0" disallow="tram rail_urban rail rail_electric rail_fast ship" speed="13.89" length="0.30" shape="1722.56,1443.62 1722.85,1443.62"/>
    </edge>
    <edge id=":139_0" function="internal">
        <lane id=":139_0_0" index="0" disallow="tram rail_urban rail rail_electric rail_fast ship" speed="22.22" length="0.10" shape="1977.12,1673.13 1977.11,1673.05"/>
    </edge>
    <edge id=":139_1" function="internal">
        <lane id=":139_1_0" index="0" disallow="tram rail_urban rail rail_electric rail_fast ship" speed="3.65" length="2.34" shape="1977.12,1673.13 1977.67,1671.80 1978.38,1671.25"/>
    </edge>
    <edge id=":139_4" function="internal">
        <lane id=":139_4_0" index="0" disallow="tram rail_urban rail rail_electric rail_fast ship" speed="3.65" length="2.34" shape="1978.38,1671.25 1979.24,1671.49 1980.26,1672.51"/>
    </edge>
    <edge id=":139_2" function="internal">
        <lane id=":139_2_0" index="0" disallow="tram rail_urban rail rail_electric rail_fast ship" speed="22.22" length="0.10" shape="1980.27,1672.59 1980.26,1672.51"/>
    </edge>
    <edge id=":139_3" function="internal">
        <lane id=":139_3_0" index="0" disallow="tram rail_urban rail rail_electric rail_fast ship" speed="3.65" length="2.34" shape="1980.27,1672.59 1979.65,1673.89 1978.92,1674.40"/>
    </edge>
    <edge id=":139_5" function="internal">
        <lane id=":139_5_0" index="0" disallow="tram rail_urban rail rail_electric rail_fast ship" speed="3.65" length="2.34" shape="1978.92,1674.40 1978.07,1674.12 1977.11,1673.05"/>
    </edge>
    <edge id=":141_0" function="internal">
        <lane id=":141_0_0" index="0" disallow="tram rail_urban rail rail_electric rail_fast ship" speed="5.69" length="2.88" shape="2080.44,1329.54 2080.21,1328.90 2080.27,1328.21 2080.48,1327.49 2080.69,1326.76"/>
    </edge>
    <edge id=":142_0" function="internal">
        <lane id=":142_0_0" index="0" disallow="tram rail_urban rail rail_electric rail_fast ship" speed="10.69" length="4.87" shape="2069.55,1337.10 2069.83,1338.45 2069.67,1339.41 2069.29,1340.40 2068.91,1341.80"/>
    </edge>
    <edge id=":143_0" function="internal">
        <lane id=":143_0_0" index="0" disallow="tram rail_urban rail rail_electric rail_fast ship" speed="11.11" length="0.31" shape="2008.73,1479.45 2008.59,1479.73"/>
    </edge>
    <edge id=":143_1" function="internal">
        <lane id=":143_1_0" index="0" disallow="tram rail_urban rail rail_electric rail_fast ship" speed="3.65" length="2.34" shape="2008.73,1479.45 2007.49,1480.19 2006.60,1480.21"/>
    </edge>
    <edge id=":143_4" function="internal">
        <lane id=":143_4_0" index="0" disallow="tram rail_urban rail rail_electric rail_fast ship" speed="3.65" length="2.34" shape="2006.60,1480.21 2006.05,1479.51 2005.84,1478.08"/>
    </edge>
    <edge id=":143_2" function="internal">
        <lane id=":143_2_0" index="0" disallow="tram rail_urban rail rail_electric rail_fast ship" speed="11.11" length="0.27" shape="2005.72,1478.33 2005.84,1478.08"/>
    </edge>
    <edge id=":143_3" function="internal">
        <lane id=":143_3_0" index="0" disallow="tram rail_urban rail rail_electric rail_fast ship" speed="3.65" length="2.34" shape="2005.72,1478.33 2006.96,1477.60 2007.86,1477.59"/>
    </edge>