<?xml version="1.0" encoding="UTF-8"?>

<!-- generated on 2022-10-07 16:59:06 by Eclipse SUMO netconvert Version 1.12.0
<configuration xmlns:xsi="http://www.w3.org/2001/XMLSchema-instance" xsi:noNamespaceSchemaLocation="http://sumo.dlr.de/xsd/netconvertConfiguration.xsd">

    <input>
        <sumo-net-file value="/home/svadlmat/UTC/utc/data/maps/sumo/Sydney.net.xml"/>
    </input>

    <output>
        <output-file value="/home/svadlmat/UTC/utc/data/scenarios/16_25_39_test/maps/networks/16_25_39_test_default_sg.net.xml"/>
    </output>

    <processing>
        <geometry.min-radius.fix.railways value="false"/>
        <geometry.max-grade.fix value="false"/>
        <offset.disable-normalization value="true"/>
        <lefthand value="false"/>
    </processing>

    <edge_removal>
        <keep-edges.explicit value="675,947,14,147,340,62,960,294,475,306,333,767,784,42,241,286,825,53,927,125,611,975,970,1003,170,448,438,698,237,515,867,669,341,373,1041,71,723,144,946,571,278,356,786,361,924,98,129,117,46,93,793,511,35,967,131,866,643,574,12,15,82,77,1033,875,179,627,375,633,423,387,399,439,893,708,710,716,113,377,484,858,290,90,339,405,985,682,909,796,717,798,730,20,928,366,769,201,512,210,289,305,331,145,523,527,262,469,833,189,102,3,500,744,411,310,338,737,770,52,768,1020,891,915,641,253,898,864,963,557,695,684,410,211,642,202,1030,760,829,263,1031,1007,942,950,212,385,148,922,87,892,614,541,808,1023,233,383,44,549,1024,34,726,482,989,746,681,89,107,718,887,834,489,587,545,876,956,945,707,236,311,428,977,894,115,679,884,208,619,376,777,92,214,7,906,969,312,874,503,446,696,937,254,711,507,369,76,978,97,13,502,1022,128,242,371,283,265,588,929,1019,563,859,6,774,1013,544,416,243,630,50,442,649,714,647,203,509,404,551,445,959,269,22,957,449,921,342,424,1017,381,628,608,923,621,407,712,56,944,230,374,249,123,584,548,365,634,1028,872,656,213,427,709,671,250,29,21,200,751,9,229,335,853,721,110,637,48,372,964,617,745,830,1002,771,890,480,2,228,252,126,10,962,190,51,599,357,558,65,955,267,670,215,1027,217,976,55,648,779,930,748,17,152,907,1018,632,380,292,334,99,797,870,244,931,792,578,854,266,406,248,135,345,355,559,514,86,479,629,354,197,961,498,488,869,886,644,743,441,83,103,935,232,192,811,772,591,759,425,826,5,657,968,280,925,547,1012,910,347,997,386,468,362,984,719,505,988,487,546,285,18,790,485,724,631,806,499,279,635,16,368,378,268,180,75,554,133,245,440,583,332,828,722,810,38,787,639,981,1058,317,863,749,284,933,524,795,539,569,827,807,112,532,400,216,1039,763,481,936,575,741,747,494,758,972,809,1026,379,264,447,513,766,84,616,594,791,295,49,384,934,535,69,432,520,478,727,865,1038,543,590,1005,11,315,54,871,367,382,508,531,426,130,391,604,738,127,307,403,645,1009,938,521,316,136,394,47,1006,552,577,943,504,104,638,618,699,990,476,926,788,74,706,686,483,600,812,101,640,762,1021,680,742,553,526,550,592,908,132,111,615,510,134,878,885,725,146,516,417,585,525,486,778,471,1004,124,605,116,958,595,636,430,415,916,932,750,19"/>
    </edge_removal>

    <junctions>
        <no-turnarounds value="true"/>
        <junctions.corner-detail value="5"/>
        <junctions.limit-turn-speed value="5.5"/>
        <rectangular-lane-cut value="false"/>
    </junctions>

    <pedestrian>
        <walkingareas value="false"/>
    </pedestrian>

    <report>
        <aggregate-warnings value="5"/>
    </report>

</configuration>
-->

<net version="1.9" junctionCornerDetail="5" limitTurnSpeed="5.50" xmlns:xsi="http://www.w3.org/2001/XMLSchema-instance" xsi:noNamespaceSchemaLocation="http://sumo.dlr.de/xsd/net_file.xsd">

    <location netOffset="-336586.08,3754670.31" convBoundary="0.00,49.91,2191.44,2154.71" origBoundary="151.232525,-33.920080,151.266296,-33.899237" projParameter="+proj=utm +zone=56 +ellps=WGS84 +datum=WGS84 +units=m +no_defs"/>

    <type id="highway.bridleway" priority="1" numLanes="1" speed="2.78" allow="pedestrian" oneway="1" width="2.00"/>
    <type id="highway.bus_guideway" priority="1" numLanes="1" speed="27.78" allow="bus" oneway="1"/>
    <type id="highway.cycleway" priority="1" numLanes="1" speed="8.33" allow="bicycle" oneway="0" width="1.00"/>
    <type id="highway.footway" priority="1" numLanes="1" speed="2.78" allow="pedestrian" oneway="1" width="2.00"/>
    <type id="highway.ford" priority="1" numLanes="1" speed="2.78" allow="army" oneway="0"/>
    <type id="highway.living_street" priority="2" numLanes="1" speed="2.78" disallow="tram rail_urban rail rail_electric rail_fast ship" oneway="0"/>
    <type id="highway.motorway" priority="14" numLanes="2" speed="39.44" allow="private emergency authority army vip passenger hov taxi bus coach delivery truck trailer motorcycle evehicle custom1 custom2" oneway="1"/>
    <type id="highway.motorway_link" priority="9" numLanes="1" speed="22.22" allow="private emergency authority army vip passenger hov taxi bus coach delivery truck trailer motorcycle evehicle custom1 custom2" oneway="1"/>
    <type id="highway.path" priority="1" numLanes="1" speed="2.78" allow="pedestrian bicycle" oneway="0" width="2.00"/>
    <type id="highway.pedestrian" priority="1" numLanes="1" speed="2.78" allow="pedestrian" oneway="1" width="2.00"/>
    <type id="highway.primary" priority="12" numLanes="2" speed="27.78" disallow="tram rail_urban rail rail_electric rail_fast ship" oneway="0"/>
    <type id="highway.primary_link" priority="7" numLanes="1" speed="22.22" disallow="tram rail_urban rail rail_electric rail_fast ship" oneway="0"/>
    <type id="highway.raceway" priority="15" numLanes="2" speed="83.33" allow="vip" oneway="0"/>
    <type id="highway.residential" priority="3" numLanes="1" speed="13.89" disallow="tram rail_urban rail rail_electric rail_fast ship" oneway="0"/>
    <type id="highway.secondary" priority="11" numLanes="1" speed="27.78" disallow="tram rail_urban rail rail_electric rail_fast ship" oneway="0"/>
    <type id="highway.secondary_link" priority="6" numLanes="1" speed="22.22" disallow="tram rail_urban rail rail_electric rail_fast ship" oneway="0"/>
    <type id="highway.service" priority="1" numLanes="1" speed="5.56" allow="pedestrian delivery bicycle" oneway="0"/>
    <type id="highway.stairs" priority="1" numLanes="1" speed="1.39" allow="pedestrian" oneway="1" width="2.00"/>
    <type id="highway.step" priority="1" numLanes="1" speed="1.39" allow="pedestrian" oneway="1" width="2.00"/>
    <type id="highway.steps" priority="1" numLanes="1" speed="1.39" allow="pedestrian" oneway="1" width="2.00"/>
    <type id="highway.tertiary" priority="10" numLanes="1" speed="22.22" disallow="tram rail_urban rail rail_electric rail_fast ship" oneway="0"/>
    <type id="highway.tertiary_link" priority="5" numLanes="1" speed="22.22" disallow="tram rail_urban rail rail_electric rail_fast ship" oneway="0"/>
    <type id="highway.track" priority="1" numLanes="1" speed="5.56" allow="pedestrian motorcycle moped bicycle" oneway="0"/>
    <type id="highway.trunk" priority="13" numLanes="2" speed="27.78" disallow="pedestrian bicycle tram rail_urban rail rail_electric rail_fast ship" oneway="0"/>
    <type id="highway.trunk_link" priority="8" numLanes="1" speed="22.22" disallow="pedestrian bicycle tram rail_urban rail rail_electric rail_fast ship" oneway="0"/>
    <type id="highway.unclassified" priority="4" numLanes="1" speed="13.89" disallow="tram rail_urban rail rail_electric rail_fast ship" oneway="0"/>
    <type id="highway.unsurfaced" priority="1" numLanes="1" speed="8.33" disallow="tram rail_urban rail rail_electric rail_fast ship" oneway="0"/>
    <type id="railway.highspeed" priority="21" numLanes="1" speed="69.44" allow="rail_fast" oneway="1"/>
    <type id="railway.light_rail" priority="19" numLanes="1" speed="27.78" allow="rail_urban" oneway="1"/>
    <type id="railway.preserved" priority="16" numLanes="1" speed="27.78" allow="rail" oneway="1"/>
    <type id="railway.rail" priority="20" numLanes="1" speed="44.44" allow="rail" oneway="1"/>
    <type id="railway.subway" priority="18" numLanes="1" speed="27.78" allow="rail_urban" oneway="1"/>
    <type id="railway.tram" priority="17" numLanes="1" speed="13.89" allow="tram" oneway="1"/>

    <edge id=":1_0" function="internal">
        <lane id=":1_0_0" index="0" disallow="tram rail_urban rail rail_electric rail_fast ship" speed="6.12" length="10.17" shape="1580.73,1030.25 1577.77,1030.37 1575.85,1029.47 1574.98,1027.54 1575.15,1024.58"/>
    </edge>
    <edge id=":1_1" function="internal">
        <lane id=":1_1_0" index="0" disallow="tram rail_urban rail rail_electric rail_fast ship" speed="3.65" length="1.44" shape="1580.73,1030.25 1579.40,1029.68"/>
    </edge>
    <edge id=":1_4" function="internal">
        <lane id=":1_4_0" index="0" disallow="tram rail_urban rail rail_electric rail_fast ship" speed="3.65" length="3.23" shape="1579.40,1029.68 1578.87,1028.96 1579.11,1028.10 1580.15,1027.10"/>
    </edge>
    <edge id=":1_2" function="internal">
        <lane id=":1_2_0" index="0" disallow="tram rail_urban rail rail_electric rail_fast ship" speed="3.93" length="3.39" shape="1578.29,1025.21 1578.23,1026.20 1578.52,1026.84 1579.16,1027.14 1580.15,1027.10"/>
    </edge>
    <edge id=":1_3" function="internal">
        <lane id=":1_3_0" index="0" disallow="tram rail_urban rail rail_electric rail_fast ship" speed="3.65" length="1.31" shape="1578.29,1025.21 1577.37,1026.13"/>
    </edge>
    <edge id=":1_5" function="internal">
        <lane id=":1_5_0" index="0" disallow="tram rail_urban rail rail_electric rail_fast ship" speed="3.65" length="3.37" shape="1577.37,1026.13 1577.27,1026.23 1576.41,1026.46 1575.70,1025.91 1575.15,1024.58"/>
    </edge>
    <edge id=":10_0" function="internal">
        <lane id=":10_0_0" index="0" disallow="tram rail_urban rail rail_electric rail_fast ship" speed="4.43" length="6.48" shape="2087.99,1333.96 2089.93,1332.90 2090.49,1332.03 2089.70,1331.37 2087.54,1330.92"/>
    </edge>
    <edge id=":101_0" function="internal">
        <lane id=":101_0_0" index="0" disallow="tram rail_urban rail rail_electric rail_fast ship" speed="22.22" length="11.22" shape="1708.46,592.73 1697.37,594.49"/>
    </edge>
    <edge id=":101_1" function="internal">
        <lane id=":101_1_0" index="0" disallow="tram rail_urban rail rail_electric rail_fast ship" speed="7.33" length="2.51" shape="1708.46,592.73 1705.95,592.58"/>
    </edge>
    <edge id=":101_2" function="internal">
        <lane id=":101_2_0" index="0" disallow="tram rail_urban rail rail_electric rail_fast ship" speed="3.65" length="1.44" shape="1708.46,592.73 1707.14,592.13"/>
    </edge>
    <edge id=":101_6" function="internal">
        <lane id=":101_6_0" index="0" disallow="tram rail_urban rail rail_electric rail_fast ship" speed="7.33" length="9.23" shape="1705.95,592.58 1703.96,591.23 1702.48,588.68 1701.52,584.93"/>
    </edge>
    <edge id=":101_7" function="internal">
        <lane id=":101_7_0" index="0" disallow="tram rail_urban rail rail_electric rail_fast ship" speed="3.65" length="3.23" shape="1707.14,592.13 1706.62,591.41 1706.89,590.55 1707.94,589.57"/>
    </edge>
    <edge id=":101_3" function="internal">
        <lane id=":101_3_0" index="0" disallow="tram rail_urban rail rail_electric rail_fast ship" speed="6.50" length="9.03" shape="1696.88,591.33 1699.24,590.60 1700.80,589.29 1701.56,587.40 1701.52,584.93"/>
    </edge>
    <edge id=":101_4" function="internal">
        <lane id=":101_4_0" index="0" disallow="tram rail_urban rail rail_electric rail_fast ship" speed="22.22" length="11.21" shape="1696.88,591.33 1707.94,589.57"/>
    </edge>
    <edge id=":101_5" function="internal">
        <lane id=":101_5_0" index="0" disallow="tram rail_urban rail rail_electric rail_fast ship" speed="3.65" length="1.44" shape="1696.88,591.33 1698.19,591.94"/>
    </edge>
    <edge id=":101_8" function="internal">
        <lane id=":101_8_0" index="0" disallow="tram rail_urban rail rail_electric rail_fast ship" speed="3.65" length="3.23" shape="1698.19,591.94 1698.70,592.66 1698.43,593.52 1697.37,594.49"/>
    </edge>
    <edge id=":102_0" function="internal">
        <lane id=":102_0_0" index="0" disallow="tram rail_urban rail rail_electric rail_fast ship" speed="3.90" length="2.63" shape="1138.29,482.71 1138.98,482.50 1139.43,482.12 1139.64,481.57 1139.61,480.84"/>
    </edge>
    <edge id=":104_0" function="internal">
        <lane id=":104_0_0" index="0" disallow="tram rail_urban rail rail_electric rail_fast ship" speed="6.53" length="9.06" shape="1534.39,391.73 1533.65,389.37 1532.33,387.81 1530.43,387.05 1527.94,387.09"/>
    </edge>
    <edge id=":104_1" function="internal">
        <lane id=":104_1_0" index="0" disallow="tram rail_urban rail rail_electric rail_fast ship" speed="13.89" length="14.40" shape="1534.39,391.73 1532.09,377.52"/>
    </edge>
    <edge id=":104_2" function="internal">
        <lane id=":104_2_0" index="0" disallow="tram rail_urban rail rail_electric rail_fast ship" speed="3.65" length="1.44" shape="1534.39,391.73 1534.99,390.42"/>
    </edge>
    <edge id=":104_9" function="internal">
        <lane id=":104_9_0" index="0" disallow="tram rail_urban rail rail_electric rail_fast ship" speed="3.65" length="3.23" shape="1534.99,390.42 1535.72,389.90 1536.57,390.16 1537.55,391.22"/>
    </edge>
    <edge id=":104_3" function="internal">
        <lane id=":104_3_0" index="0" disallow="tram rail_urban rail rail_electric rail_fast ship" speed="13.89" length="14.39" shape="1535.25,377.01 1537.55,391.22"/>
    </edge>
    <edge id=":104_4" function="internal">
        <lane id=":104_4_0" index="0" disallow="tram rail_urban rail rail_electric rail_fast ship" speed="7.99" length="4.06" shape="1535.25,377.01 1535.32,380.91 1535.26,381.06"/>
    </edge>
    <edge id=":104_5" function="internal">
        <lane id=":104_5_0" index="0" disallow="tram rail_urban rail rail_electric rail_fast ship" speed="3.65" length="1.44" shape="1535.25,377.01 1534.65,378.32"/>
    </edge>
    <edge id=":104_10" function="internal">
        <lane id=":104_10_0" index="0" disallow="tram rail_urban rail rail_electric rail_fast ship" speed="7.99" length="10.15" shape="1535.26,381.06 1534.13,383.89 1531.66,385.95 1527.94,387.09"/>
    </edge>
    <edge id=":104_11" function="internal">
        <lane id=":104_11_0" index="0" disallow="tram rail_urban rail rail_electric rail_fast ship" speed="3.65" length="3.23" shape="1534.65,378.32 1533.93,378.85 1533.07,378.58 1532.09,377.52"/>
    </edge>
    <edge id=":104_6" function="internal">
        <lane id=":104_6_0" index="0" disallow="tram rail_urban rail rail_electric rail_fast ship" speed="6.50" length="9.03" shape="1527.44,383.92 1529.81,383.20 1531.38,381.89 1532.14,380.00 1532.09,377.52"/>
    </edge>
    <edge id=":104_7" function="internal">
        <lane id=":104_7_0" index="0" disallow="tram rail_urban rail rail_electric rail_fast ship" speed="8.02" length="14.20" shape="1527.44,383.92 1531.34,383.87 1534.32,385.07 1536.39,387.52 1537.55,391.22"/>
    </edge>
    <edge id=":104_8" function="internal">
        <lane id=":104_8_0" index="0" disallow="tram rail_urban rail rail_electric rail_fast ship" speed="3.65" length="4.67" shape="1527.44,383.92 1528.75,384.53 1529.27,385.26 1529.00,386.11 1527.94,387.09"/>
    </edge>
    <edge id=":107_0" function="internal">
        <lane id=":107_0_0" index="0" disallow="tram rail_urban rail rail_electric rail_fast ship" speed="13.89" length="0.30" shape="947.76,196.75 948.05,196.69"/>
    </edge>
    <edge id=":109_0" function="internal">
        <lane id=":109_0_0" index="0" disallow="tram rail_urban rail rail_electric rail_fast ship" speed="3.90" length="2.59" shape="1134.48,453.06 1134.45,452.35 1134.65,451.80 1135.09,451.42 1135.77,451.19"/>
    </edge>
    <edge id=":110_0" function="internal">
        <lane id=":110_0_0" index="0" disallow="tram rail_urban rail rail_electric rail_fast ship" speed="13.89" length="0.10" shape="1704.03,238.50 1704.03,238.50"/>
    </edge>
    <edge id=":112_0" function="internal">
        <lane id=":112_0_0" index="0" disallow="tram rail_urban rail rail_electric rail_fast ship" speed="6.60" length="9.13" shape="1406.99,310.43 1406.20,308.04 1404.86,306.45 1402.95,305.66 1400.49,305.68"/>
    </edge>
    <edge id=":112_1" function="internal">
        <lane id=":112_1_0" index="0" disallow="tram rail_urban rail rail_electric rail_fast ship" speed="7.98" length="14.25" shape="1406.99,310.43 1406.85,306.53 1408.00,303.53 1410.44,301.44 1414.17,300.26"/>
    </edge>
    <edge id=":112_2" function="internal">
        <lane id=":112_2_0" index="0" disallow="tram rail_urban rail rail_electric rail_fast ship" speed="3.65" length="4.67" shape="1406.99,310.43 1407.56,309.11 1408.28,308.58 1409.14,308.83 1410.14,309.87"/>
    </edge>
    <edge id=":112_3" function="internal">
        <lane id=":112_3_0" index="0" disallow="tram rail_urban rail rail_electric rail_fast ship" speed="6.48" length="9.03" shape="1414.69,303.42 1412.32,304.16 1410.78,305.49 1410.05,307.39 1410.14,309.87"/>
    </edge>
    <edge id=":112_4" function="internal">
        <lane id=":112_4_0" index="0" disallow="tram rail_urban rail rail_electric rail_fast ship" speed="13.89" length="14.38" shape="1414.69,303.42 1400.49,305.68"/>
    </edge>
    <edge id=":112_5" function="internal">
        <lane id=":112_5_0" index="0" disallow="tram rail_urban rail rail_electric rail_fast ship" speed="3.65" length="1.44" shape="1414.69,303.42 1413.37,302.82"/>
    </edge>
    <edge id=":112_9" function="internal">
        <lane id=":112_9_0" index="0" disallow="tram rail_urban rail rail_electric rail_fast ship" speed="3.65" length="3.23" shape="1413.37,302.82 1412.85,302.10 1413.11,301.24 1414.17,300.26"/>
    </edge>
    <edge id=":112_6" function="internal">
        <lane id=":112_6_0" index="0" disallow="tram rail_urban rail rail_electric rail_fast ship" speed="13.89" length="14.35" shape="1400.00,302.52 1414.17,300.26"/>
    </edge>
    <edge id=":112_7" function="internal">
        <lane id=":112_7_0" index="0" disallow="tram rail_urban rail rail_electric rail_fast ship" speed="8.08" length="3.99" shape="1400.00,302.52 1403.85,302.49 1403.98,302.54"/>
    </edge>
    <edge id=":112_8" function="internal">
        <lane id=":112_8_0" index="0" disallow="tram rail_urban rail rail_electric rail_fast ship" speed="3.65" length="1.44" shape="1400.00,302.52 1401.31,303.13"/>
    </edge>
    <edge id=":112_10" function="internal">
        <lane id=":112_10_0" index="0" disallow="tram rail_urban rail rail_electric rail_fast ship" speed="8.08" length="10.21" shape="1403.98,302.54 1406.82,303.70 1408.92,306.16 1410.14,309.87"/>
    </edge>
    <edge id=":112_11" function="internal">
        <lane id=":112_11_0" index="0" disallow="tram rail_urban rail rail_electric rail_fast ship" speed="3.65" length="3.23" shape="1401.31,303.13 1401.82,303.86 1401.55,304.71 1400.49,305.68"/>
    </edge>
    <edge id=":113_0" function="internal">
        <lane id=":113_0_0" index="0" disallow="tram rail_urban rail rail_electric rail_fast ship" speed="27.78" length="0.30" shape="1489.79,115.20 1489.75,114.90"/>
    </edge>
    <edge id=":114_0" function="internal">
        <lane id=":114_0_0" index="0" disallow="tram rail_urban rail rail_electric rail_fast ship" speed="4.00" length="1.74" shape="2078.36,177.96 2078.16,178.37 2077.89,178.68 2077.53,178.90 2077.10,179.02"/>
    </edge>
    <edge id=":116_0" function="internal">
        <lane id=":116_0_0" index="0" disallow="tram rail_urban rail rail_electric rail_fast ship" speed="13.89" length="0.31" shape="444.09,626.21 444.02,625.90"/>
    </edge>
    <edge id=":116_1" function="internal">
        <lane id=":116_1_0" index="0" disallow="tram rail_urban rail rail_electric rail_fast ship" speed="3.65" length="2.34" shape="444.09,626.21 444.61,624.87 445.31,624.31"/>
    </edge>
    <edge id=":116_4" function="internal">
        <lane id=":116_4_0" index="0" disallow="tram rail_urban rail rail_electric rail_fast ship" speed="3.65" length="2.34" shape="445.31,624.31 446.18,624.53 447.21,625.53"/>
    </edge>
    <edge id=":116_2" function="internal">
        <lane id=":116_2_0" index="0" disallow="tram rail_urban rail rail_electric rail_fast ship" speed="13.89" length="0.26" shape="447.16,625.27 447.21,625.53"/>
    </edge>
    <edge id=":116_3" function="internal">
        <lane id=":116_3_0" index="0" disallow="tram rail_urban rail rail_electric rail_fast ship" speed="3.65" length="2.34" shape="447.16,625.27 446.61,626.61 445.91,627.16"/>
    </edge>
    <edge id=":116_5" function="internal">
        <lane id=":116_5_0" index="0" disallow="tram rail_urban rail rail_electric rail_fast ship" speed="3.65" length="2.34" shape="445.91,627.16 445.04,626.92 444.02,625.90"/>
    </edge>
    <edge id=":117_0" function="internal">
        <lane id=":117_0_0" index="0" disallow="tram rail_urban rail rail_electric rail_fast ship" speed="6.37" length="9.04" shape="1470.06,644.17 1469.31,641.78 1467.98,640.26 1466.07,639.60 1463.58,639.81"/>
    </edge>
    <edge id=":117_1" function="internal">
        <lane id=":117_1_0" index="0" disallow="tram rail_urban rail rail_electric rail_fast ship" speed="8.28" length="14.27" shape="1470.06,644.17 1469.94,640.20 1471.03,637.08 1473.31,634.79 1476.79,633.35"/>
    </edge>
    <edge id=":117_2" function="internal">
        <lane id=":117_2_0" index="0" disallow="tram rail_urban rail rail_electric rail_fast ship" speed="3.65" length="4.67" shape="1470.06,644.17 1470.65,642.85 1471.38,642.33 1472.23,642.60 1473.22,643.65"/>
    </edge>
    <edge id=":117_3" function="internal">
        <lane id=":117_3_0" index="0" disallow="tram rail_urban rail rail_electric rail_fast ship" speed="6.84" length="9.42" shape="1477.57,636.46 1475.31,637.40 1473.83,638.92 1473.13,641.00 1473.22,643.65"/>
    </edge>
    <edge id=":117_4" function="internal">
        <lane id=":117_4_0" index="0" disallow="tram rail_urban rail rail_electric rail_fast ship" speed="27.78" length="14.39" shape="1477.57,636.46 1463.58,639.81"/>
    </edge>
    <edge id=":117_5" function="internal">
        <lane id=":117_5_0" index="0" disallow="tram rail_urban rail rail_electric rail_fast ship" speed="3.65" length="1.44" shape="1477.57,636.46 1476.21,635.97"/>
    </edge>
    <edge id=":117_9" function="internal">
        <lane id=":117_9_0" index="0" disallow="tram rail_urban rail rail_electric rail_fast ship" speed="3.65" length="3.23" shape="1476.21,635.97 1475.63,635.29 1475.82,634.42 1476.79,633.35"/>
    </edge>
    <edge id=":117_6" function="internal">
        <lane id=":117_6_0" index="0" disallow="tram rail_urban rail rail_electric rail_fast ship" speed="27.78" length="14.32" shape="1462.86,636.69 1476.79,633.35"/>
    </edge>
    <edge id=":117_7" function="internal">
        <lane id=":117_7_0" index="0" disallow="tram rail_urban rail rail_electric rail_fast ship" speed="7.89" length="4.00" shape="1462.86,636.69 1466.85,636.36"/>
    </edge>
    <edge id=":117_8" function="internal">
        <lane id=":117_8_0" index="0" disallow="tram rail_urban rail rail_electric rail_fast ship" speed="3.65" length="1.44" shape="1462.86,636.69 1464.21,637.20"/>
    </edge>
    <edge id=":117_10" function="internal">
        <lane id=":117_10_0" index="0" disallow="tram rail_urban rail rail_electric rail_fast ship" speed="7.89" length="10.45" shape="1466.85,636.36 1469.90,637.41 1472.02,639.84 1473.22,643.65"/>
    </edge>
    <edge id=":117_11" function="internal">
        <lane id=":117_11_0" index="0" disallow="tram rail_urban rail rail_electric rail_fast ship" speed="3.65" length="3.23" shape="1464.21,637.20 1464.78,637.89 1464.57,638.76 1463.58,639.81"/>
    </edge>
    <edge id=":118_0" function="internal">
        <lane id=":118_0_0" index="0" disallow="tram rail_urban rail rail_electric rail_fast ship" speed="3.97" length="1.91" shape="2087.80,187.57 2087.78,187.07 2087.90,186.63 2088.15,186.26 2088.55,185.95"/>
    </edge>
    <edge id=":119_0" function="internal">
        <lane id=":119_0_0" index="0" disallow="tram rail_urban rail rail_electric rail_fast ship" speed="13.89" length="0.26" shape="1813.76,222.84 1813.50,222.88"/>
    </edge>
    <edge id=":120_0" function="internal">
        <lane id=":120_0_0" index="0" disallow="tram rail_urban rail rail_electric rail_fast ship" speed="13.89" length="8.56" shape="1990.01,719.08 1983.22,713.87"/>
    </edge>
    <edge id=":120_1" function="internal">
        <lane id=":120_1_0" index="0" disallow="tram rail_urban rail rail_electric rail_fast ship" speed="11.68" length="8.54" shape="1991.35,715.36 1988.80,715.42 1986.96,715.50 1985.29,715.15 1983.22,713.87"/>
    </edge>
    <edge id=":124_0" function="internal">
        <lane id=":124_0_0" index="0" disallow="tram rail_urban rail rail_electric rail_fast ship" speed="27.78" length="0.30" shape="1389.74,676.37 1389.48,676.53"/>
    </edge>
    <edge id=":124_1" function="internal">
        <lane id=":124_1_0" index="0" disallow="tram rail_urban rail rail_electric rail_fast ship" speed="3.65" length="2.34" shape="1389.74,676.37 1388.30,676.35 1387.52,675.90"/>
    </edge>
    <edge id=":124_4" function="internal">
        <lane id=":124_4_0" index="0" disallow="tram rail_urban rail rail_electric rail_fast ship" speed="3.65" length="2.34" shape="1387.52,675.90 1387.42,675.01 1387.99,673.69"/>
    </edge>
    <edge id=":124_2" function="internal">
        <lane id=":124_2_0" index="0" disallow="tram rail_urban rail rail_electric rail_fast ship" speed="27.78" length="0.29" shape="1387.75,673.85 1387.99,673.69"/>
    </edge>
    <edge id=":124_3" function="internal">
        <lane id=":124_3_0" index="0" disallow="tram rail_urban rail rail_electric rail_fast ship" speed="3.65" length="2.34" shape="1387.75,673.85 1389.19,673.87 1389.96,674.32"/>
    </edge>
    <edge id=":124_5" function="internal">
        <lane id=":124_5_0" index="0" disallow="tram rail_urban rail rail_electric rail_fast ship" speed="3.65" length="2.34" shape="1389.96,674.32 1390.06,675.21 1389.48,676.53"/>
    </edge>
    <edge id=":127_0" function="internal">
        <lane id=":127_0_0" index="0" disallow="tram rail_urban rail rail_electric rail_fast ship" speed="20.84" length="14.45" shape="1529.55,361.74 1527.32,347.46"/>
    </edge>
    <edge id=":127_1" function="internal">
        <lane id=":127_1_0" index="0" disallow="tram rail_urban rail rail_electric rail_fast ship" speed="8.00" length="4.12" shape="1529.55,361.74 1529.48,357.84 1529.56,357.64"/>
    </edge>
    <edge id=":127_2" function="internal">
        <lane id=":127_2_0" index="0" disallow="tram rail_urban rail rail_electric rail_fast ship" speed="3.65" length="1.44" shape="1529.55,361.74 1530.15,360.43"/>
    </edge>
    <edge id=":127_9" function="internal">
        <lane id=":127_9_0" index="0" disallow="tram rail_urban rail rail_electric rail_fast ship" speed="8.00" length="10.11" shape="1529.56,357.64 1530.67,354.85 1533.14,352.79 1536.87,351.65"/>
    </edge>
    <edge id=":127_10" function="internal">
        <lane id=":127_10_0" index="0" disallow="tram rail_urban rail rail_electric rail_fast ship" speed="3.65" length="3.23" shape="1530.15,360.43 1530.87,359.90 1531.73,360.17 1532.71,361.23"/>
    </edge>
    <edge id=":127_3" function="internal">
        <lane id=":127_3_0" index="0" disallow="tram rail_urban rail rail_electric rail_fast ship" speed="6.50" length="9.06" shape="1537.37,354.81 1535.00,355.54 1533.43,356.85 1532.66,358.75 1532.71,361.23"/>
    </edge>
    <edge id=":127_4" function="internal">
        <lane id=":127_4_0" index="0" disallow="tram rail_urban rail rail_electric rail_fast ship" speed="7.99" length="14.22" shape="1537.37,354.81 1533.47,354.86 1530.49,353.66 1528.44,351.19 1527.32,347.46"/>
    </edge>
    <edge id=":127_5" function="internal">
        <lane id=":127_5_0" index="0" disallow="tram rail_urban rail rail_electric rail_fast ship" speed="3.65" length="4.67" shape="1537.37,354.81 1536.06,354.21 1535.54,353.48 1535.81,352.63 1536.87,351.65"/>
    </edge>
    <edge id=":127_6" function="internal">
        <lane id=":127_6_0" index="0" disallow="tram rail_urban rail rail_electric rail_fast ship" speed="6.49" length="9.03" shape="1530.49,346.98 1531.20,349.35 1532.50,350.92 1534.39,351.68 1536.87,351.65"/>
    </edge>
    <edge id=":127_7" function="internal">
        <lane id=":127_7_0" index="0" disallow="tram rail_urban rail rail_electric rail_fast ship" speed="20.84" length="14.42" shape="1530.49,346.98 1532.71,361.23"/>
    </edge>
    <edge id=":127_8" function="internal">
        <lane id=":127_8_0" index="0" disallow="tram rail_urban rail rail_electric rail_fast ship" speed="3.65" length="1.44" shape="1530.49,346.98 1529.88,348.29"/>
    </edge>
    <edge id=":127_11" function="internal">
        <lane id=":127_11_0" index="0" disallow="tram rail_urban rail rail_electric rail_fast ship" speed="3.65" length="3.23" shape="1529.88,348.29 1529.14,348.80 1528.29,348.53 1527.32,347.46"/>
    </edge>
    <edge id=":129_0" function="internal">
        <lane id=":129_0_0" index="0" disallow="tram rail_urban rail rail_electric rail_fast ship" speed="22.22" length="0.10" shape="1916.35,1532.26 1916.41,1532.31"/>
    </edge>
    <edge id=":129_1" function="internal">
        <lane id=":129_1_0" index="0" disallow="tram rail_urban rail rail_electric rail_fast ship" speed="3.65" length="2.34" shape="1916.35,1532.26 1915.98,1530.87 1916.21,1530.00"/>
    </edge>
    <edge id=":129_4" function="internal">
        <lane id=":129_4_0" index="0" disallow="tram rail_urban rail rail_electric rail_fast ship" speed="3.65" length="2.34" shape="1916.21,1530.00 1917.04,1529.67 1918.47,1529.86"/>
    </edge>
    <edge id=":129_2" function="internal">
        <lane id=":129_2_0" index="0" disallow="tram rail_urban rail rail_electric rail_fast ship" speed="22.22" length="0.10" shape="1918.41,1529.81 1918.47,1529.86"/>
    </edge>
    <edge id=":129_3" function="internal">