<?xml version="1.0" encoding="UTF-8"?>

<!-- generated on 2022-10-07 16:59:04 by Eclipse SUMO netconvert Version 1.12.0
<configuration xmlns:xsi="http://www.w3.org/2001/XMLSchema-instance" xsi:noNamespaceSchemaLocation="http://sumo.dlr.de/xsd/netconvertConfiguration.xsd">

    <input>
        <sumo-net-file value="/home/svadlmat/UTC/utc/data/maps/sumo/Sydney.net.xml"/>
    </input>

    <output>
        <output-file value="/home/svadlmat/UTC/utc/data/scenarios/16_25_39_test/maps/networks/16_25_39_test_similarity_average_dissimilarity_sg.net.xml"/>
    </output>

    <processing>
        <geometry.min-radius.fix.railways value="false"/>
        <geometry.max-grade.fix value="false"/>
        <offset.disable-normalization value="true"/>
        <lefthand value="false"/>
    </processing>

    <edge_removal>
        <keep-edges.explicit value="675,947,14,147,340,62,960,294,306,333,767,825,286,53,125,975,970,1003,170,448,438,237,867,669,341,1041,723,946,278,356,361,924,98,129,117,46,511,967,131,866,643,574,12,15,82,77,1033,875,179,627,375,633,423,387,399,439,893,708,710,716,113,377,484,90,290,339,985,909,796,717,20,769,201,512,210,289,305,331,145,262,469,102,500,744,411,310,338,770,52,768,1020,891,915,641,253,898,864,963,557,684,410,211,642,202,760,829,263,1031,1007,942,950,212,385,148,922,892,614,541,808,1023,233,549,1024,34,726,482,989,681,107,718,489,587,956,945,707,236,311,428,977,894,115,679,884,208,619,92,214,7,906,969,312,874,503,446,696,937,254,711,369,76,978,97,13,502,1022,371,283,265,588,1019,563,859,6,774,1013,544,416,630,442,714,647,203,404,551,445,959,269,22,957,449,921,342,424,1017,628,608,407,712,56,944,230,374,249,123,548,634,1028,872,656,213,427,709,671,250,29,21,200,751,9,229,335,853,721,110,372,964,745,1002,771,890,480,228,252,126,10,962,190,51,599,357,558,65,955,267,670,215,1027,217,976,55,648,748,17,907,1018,292,334,99,797,870,244,854,266,406,248,135,345,559,514,86,479,629,197,961,498,488,869,886,644,743,441,83,103,935,232,192,811,772,591,759,425,826,5,968,280,547,1012,910,347,997,386,468,984,719,487,546,285,18,485,724,631,806,499,279,635,16,368,268,180,75,133,245,440,583,332,828,722,38,787,639,981,1058,863,749,284,933,795,539,569,827,807,112,400,216,1039,763,481,936,575,741,494,758,972,1026,264,447,513,766,84,616,594,295,384,934,535,520,865,1038,543,1005,11,315,54,871,367,382,426,130,127,307,403,645,521,316,136,394,47,1006,552,577,943,504,104,618,990,788,74,706,686,483,600,812,101,640,762,1021,680,742,550,908,132,111,615,134,878,885,146,417,585,486,778,471,1004,124,958,595,636,430,415,916,750,19"/>
    </edge_removal>

    <junctions>
        <no-turnarounds value="true"/>
        <junctions.corner-detail value="5"/>
        <junctions.limit-turn-speed value="5.5"/>
        <rectangular-lane-cut value="false"/>
    </junctions>

    <pedestrian>
        <walkingareas value="false"/>
    </pedestrian>

    <report>
        <aggregate-warnings value="5"/>
    </report>

</configuration>
-->

<net version="1.9" junctionCornerDetail="5" limitTurnSpeed="5.50" xmlns:xsi="http://www.w3.org/2001/XMLSchema-instance" xsi:noNamespaceSchemaLocation="http://sumo.dlr.de/xsd/net_file.xsd">

    <location netOffset="-336586.08,3754670.31" convBoundary="0.00,49.91,2191.44,2154.71" origBoundary="151.232525,-33.920080,151.266296,-33.899237" projParameter="+proj=utm +zone=56 +ellps=WGS84 +datum=WGS84 +units=m +no_defs"/>

    <type id="highway.bridleway" priority="1" numLanes="1" speed="2.78" allow="pedestrian" oneway="1" width="2.00"/>
    <type id="highway.bus_guideway" priority="1" numLanes="1" speed="27.78" allow="bus" oneway="1"/>
    <type id="highway.cycleway" priority="1" numLanes="1" speed="8.33" allow="bicycle" oneway="0" width="1.00"/>
    <type id="highway.footway" priority="1" numLanes="1" speed="2.78" allow="pedestrian" oneway="1" width="2.00"/>
    <type id="highway.ford" priority="1" numLanes="1" speed="2.78" allow="army" oneway="0"/>
    <type id="highway.living_street" priority="2" numLanes="1" speed="2.78" disallow="tram rail_urban rail rail_electric rail_fast ship" oneway="0"/>
    <type id="highway.motorway" priority="14" numLanes="2" speed="39.44" allow="private emergency authority army vip passenger hov taxi bus coach delivery truck trailer motorcycle evehicle custom1 custom2" oneway="1"/>
    <type id="highway.motorway_link" priority="9" numLanes="1" speed="22.22" allow="private emergency authority army vip passenger hov taxi bus coach delivery truck trailer motorcycle evehicle custom1 custom2" oneway="1"/>
    <type id="highway.path" priority="1" numLanes="1" speed="2.78" allow="pedestrian bicycle" oneway="0" width="2.00"/>
    <type id="highway.pedestrian" priority="1" numLanes="1" speed="2.78" allow="pedestrian" oneway="1" width="2.00"/>
    <type id="highway.primary" priority="12" numLanes="2" speed="27.78" disallow="tram rail_urban rail rail_electric rail_fast ship" oneway="0"/>
    <type id="highway.primary_link" priority="7" numLanes="1" speed="22.22" disallow="tram rail_urban rail rail_electric rail_fast ship" oneway="0"/>
    <type id="highway.raceway" priority="15" numLanes="2" speed="83.33" allow="vip" oneway="0"/>
    <type id="highway.residential" priority="3" numLanes="1" speed="13.89" disallow="tram rail_urban rail rail_electric rail_fast ship" oneway="0"/>
    <type id="highway.secondary" priority="11" numLanes="1" speed="27.78" disallow="tram rail_urban rail rail_electric rail_fast ship" oneway="0"/>
    <type id="highway.secondary_link" priority="6" numLanes="1" speed="22.22" disallow="tram rail_urban rail rail_electric rail_fast ship" oneway="0"/>
    <type id="highway.service" priority="1" numLanes="1" speed="5.56" allow="pedestrian delivery bicycle" oneway="0"/>
    <type id="highway.stairs" priority="1" numLanes="1" speed="1.39" allow="pedestrian" oneway="1" width="2.00"/>
    <type id="highway.step" priority="1" numLanes="1" speed="1.39" allow="pedestrian" oneway="1" width="2.00"/>
    <type id="highway.steps" priority="1" numLanes="1" speed="1.39" allow="pedestrian" oneway="1" width="2.00"/>
    <type id="highway.tertiary" priority="10" numLanes="1" speed="22.22" disallow="tram rail_urban rail rail_electric rail_fast ship" oneway="0"/>
    <type id="highway.tertiary_link" priority="5" numLanes="1" speed="22.22" disallow="tram rail_urban rail rail_electric rail_fast ship" oneway="0"/>
    <type id="highway.track" priority="1" numLanes="1" speed="5.56" allow="pedestrian motorcycle moped bicycle" oneway="0"/>
    <type id="highway.trunk" priority="13" numLanes="2" speed="27.78" disallow="pedestrian bicycle tram rail_urban rail rail_electric rail_fast ship" oneway="0"/>
    <type id="highway.trunk_link" priority="8" numLanes="1" speed="22.22" disallow="pedestrian bicycle tram rail_urban rail rail_electric rail_fast ship" oneway="0"/>
    <type id="highway.unclassified" priority="4" numLanes="1" speed="13.89" disallow="tram rail_urban rail rail_electric rail_fast ship" oneway="0"/>
    <type id="highway.unsurfaced" priority="1" numLanes="1" speed="8.33" disallow="tram rail_urban rail rail_electric rail_fast ship" oneway="0"/>
    <type id="railway.highspeed" priority="21" numLanes="1" speed="69.44" allow="rail_fast" oneway="1"/>
    <type id="railway.light_rail" priority="19" numLanes="1" speed="27.78" allow="rail_urban" oneway="1"/>
    <type id="railway.preserved" priority="16" numLanes="1" speed="27.78" allow="rail" oneway="1"/>
    <type id="railway.rail" priority="20" numLanes="1" speed="44.44" allow="rail" oneway="1"/>
    <type id="railway.subway" priority="18" numLanes="1" speed="27.78" allow="rail_urban" oneway="1"/>
    <type id="railway.tram" priority="17" numLanes="1" speed="13.89" allow="tram" oneway="1"/>

    <edge id=":101_0" function="internal">
        <lane id=":101_0_0" index="0" disallow="tram rail_urban rail rail_electric rail_fast ship" speed="22.22" length="11.22" shape="1708.45,592.73 1697.37,594.49"/>
    </edge>
    <edge id=":101_1" function="internal">
        <lane id=":101_1_0" index="0" disallow="tram rail_urban rail rail_electric rail_fast ship" speed="7.33" length="7.47" shape="1708.45,592.73 1705.95,592.58 1703.96,591.23 1702.68,589.01"/>
    </edge>
    <edge id=":101_4" function="internal">
        <lane id=":101_4_0" index="0" disallow="tram rail_urban rail rail_electric rail_fast ship" speed="7.33" length="4.26" shape="1702.68,589.01 1702.48,588.68 1701.52,584.93"/>
    </edge>
    <edge id=":101_2" function="internal">
        <lane id=":101_2_0" index="0" disallow="tram rail_urban rail rail_electric rail_fast ship" speed="6.50" length="9.03" shape="1696.88,591.33 1699.24,590.60 1700.80,589.29 1701.56,587.40 1701.52,584.93"/>
    </edge>
    <edge id=":101_3" function="internal">
        <lane id=":101_3_0" index="0" disallow="tram rail_urban rail rail_electric rail_fast ship" speed="3.65" length="1.44" shape="1696.88,591.33 1698.19,591.94"/>
    </edge>
    <edge id=":101_5" function="internal">
        <lane id=":101_5_0" index="0" disallow="tram rail_urban rail rail_electric rail_fast ship" speed="3.65" length="3.23" shape="1698.19,591.94 1698.70,592.66 1698.43,593.52 1697.37,594.49"/>
    </edge>
    <edge id=":102_0" function="internal">
        <lane id=":102_0_0" index="0" disallow="tram rail_urban rail rail_electric rail_fast ship" speed="3.90" length="2.63" shape="1138.29,482.71 1138.98,482.50 1139.43,482.12 1139.64,481.57 1139.61,480.84"/>
    </edge>
    <edge id=":104_0" function="internal">
        <lane id=":104_0_0" index="0" disallow="tram rail_urban rail rail_electric rail_fast ship" speed="6.53" length="9.06" shape="1534.39,391.73 1533.65,389.37 1532.33,387.81 1530.43,387.05 1527.94,387.09"/>
    </edge>
    <edge id=":104_1" function="internal">
        <lane id=":104_1_0" index="0" disallow="tram rail_urban rail rail_electric rail_fast ship" speed="13.89" length="14.40" shape="1534.39,391.73 1532.09,377.52"/>
    </edge>
    <edge id=":104_2" function="internal">
        <lane id=":104_2_0" index="0" disallow="tram rail_urban rail rail_electric rail_fast ship" speed="3.65" length="4.67" shape="1534.39,391.73 1534.99,390.42 1535.72,389.90 1536.57,390.16 1537.55,391.22"/>
    </edge>
    <edge id=":104_3" function="internal">
        <lane id=":104_3_0" index="0" disallow="tram rail_urban rail rail_electric rail_fast ship" speed="6.50" length="9.03" shape="1527.44,383.92 1529.81,383.20 1531.38,381.89 1532.14,380.00 1532.09,377.52"/>
    </edge>
    <edge id=":104_4" function="internal">
        <lane id=":104_4_0" index="0" disallow="tram rail_urban rail rail_electric rail_fast ship" speed="8.02" length="14.20" shape="1527.44,383.92 1531.34,383.87 1534.32,385.07 1536.39,387.52 1537.55,391.22"/>
    </edge>
    <edge id=":104_5" function="internal">
        <lane id=":104_5_0" index="0" disallow="tram rail_urban rail rail_electric rail_fast ship" speed="3.65" length="4.67" shape="1527.44,383.92 1528.75,384.53 1529.27,385.26 1529.00,386.11 1527.94,387.09"/>
    </edge>
    <edge id=":107_0" function="internal">
        <lane id=":107_0_0" index="0" disallow="tram rail_urban rail rail_electric rail_fast ship" speed="13.89" length="0.30" shape="947.76,196.75 948.05,196.69"/>
    </edge>
    <edge id=":109_0" function="internal">
        <lane id=":109_0_0" index="0" disallow="tram rail_urban rail rail_electric rail_fast ship" speed="3.90" length="2.59" shape="1134.48,453.06 1134.45,452.35 1134.65,451.80 1135.09,451.42 1135.77,451.19"/>
    </edge>
    <edge id=":110_0" function="internal">
        <lane id=":110_0_0" index="0" disallow="tram rail_urban rail rail_electric rail_fast ship" speed="13.89" length="0.10" shape="1704.03,238.50 1704.03,238.50"/>
    </edge>
    <edge id=":112_0" function="internal">
        <lane id=":112_0_0" index="0" disallow="tram rail_urban rail rail_electric rail_fast ship" speed="6.51" length="8.87" shape="1406.95,310.21 1406.19,307.91 1404.87,306.39 1403.01,305.64 1400.59,305.67"/>
    </edge>
    <edge id=":112_1" function="internal">
        <lane id=":112_1_0" index="0" disallow="tram rail_urban rail rail_electric rail_fast ship" speed="7.90" length="2.51" shape="1406.95,310.21 1406.86,307.71"/>
    </edge>
    <edge id=":112_2" function="internal">
        <lane id=":112_2_0" index="0" disallow="tram rail_urban rail rail_electric rail_fast ship" speed="3.65" length="1.30" shape="1406.95,310.21 1407.47,309.02"/>
    </edge>
    <edge id=":112_6" function="internal">
        <lane id=":112_6_0" index="0" disallow="tram rail_urban rail rail_electric rail_fast ship" speed="7.90" length="11.44" shape="1406.86,307.71 1406.82,306.40 1407.95,303.48 1410.35,301.44 1414.02,300.28"/>
    </edge>
    <edge id=":112_7" function="internal">
        <lane id=":112_7_0" index="0" disallow="tram rail_urban rail rail_electric rail_fast ship" speed="3.65" length="3.37" shape="1407.47,309.02 1407.52,308.89 1408.24,308.35 1409.10,308.61 1410.10,309.65"/>
    </edge>
    <edge id=":112_3" function="internal">
        <lane id=":112_3_0" index="0" disallow="tram rail_urban rail rail_electric rail_fast ship" speed="13.89" length="14.10" shape="1400.10,302.51 1414.02,300.28"/>
    </edge>
    <edge id=":112_4" function="internal">
        <lane id=":112_4_0" index="0" disallow="tram rail_urban rail rail_electric rail_fast ship" speed="8.01" length="13.93" shape="1400.10,302.51 1403.90,302.46 1406.84,303.64 1408.90,306.03 1410.10,309.65"/>
    </edge>
    <edge id=":112_5" function="internal">
        <lane id=":112_5_0" index="0" disallow="tram rail_urban rail rail_electric rail_fast ship" speed="3.65" length="1.44" shape="1400.10,302.51 1401.41,303.11"/>
    </edge>
    <edge id=":112_8" function="internal">
        <lane id=":112_8_0" index="0" disallow="tram rail_urban rail rail_electric rail_fast ship" speed="3.65" length="3.23" shape="1401.41,303.11 1401.92,303.84 1401.65,304.70 1400.59,305.67"/>
    </edge>
    <edge id=":113_0" function="internal">
        <lane id=":113_0_0" index="0" disallow="tram rail_urban rail rail_electric rail_fast ship" speed="27.78" length="0.30" shape="1489.79,115.20 1489.75,114.90"/>
    </edge>
    <edge id=":114_0" function="internal">
        <lane id=":114_0_0" index="0" disallow="tram rail_urban rail rail_electric rail_fast ship" speed="4.00" length="1.74" shape="2078.36,177.96 2078.16,178.37 2077.89,178.68 2077.53,178.90 2077.10,179.02"/>
    </edge>
    <edge id=":116_0" function="internal">
        <lane id=":116_0_0" index="0" disallow="tram rail_urban rail rail_electric rail_fast ship" speed="13.89" length="0.31" shape="444.09,626.21 444.02,625.90"/>
    </edge>
    <edge id=":116_1" function="internal">
        <lane id=":116_1_0" index="0" disallow="tram rail_urban rail rail_electric rail_fast ship" speed="3.65" length="2.34" shape="444.09,626.21 444.61,624.87 445.31,624.31"/>
    </edge>
    <edge id=":116_4" function="internal">
        <lane id=":116_4_0" index="0" disallow="tram rail_urban rail rail_electric rail_fast ship" speed="3.65" length="2.34" shape="445.31,624.31 446.18,624.53 447.21,625.53"/>
    </edge>
    <edge id=":116_2" function="internal">
        <lane id=":116_2_0" index="0" disallow="tram rail_urban rail rail_electric rail_fast ship" speed="13.89" length="0.26" shape="447.16,625.27 447.21,625.53"/>
    </edge>
    <edge id=":116_3" function="internal">
        <lane id=":116_3_0" index="0" disallow="tram rail_urban rail rail_electric rail_fast ship" speed="3.65" length="2.34" shape="447.16,625.27 446.61,626.61 445.91,627.16"/>
    </edge>
    <edge id=":116_5" function="internal">
        <lane id=":116_5_0" index="0" disallow="tram rail_urban rail rail_electric rail_fast ship" speed="3.65" length="2.34" shape="445.91,627.16 445.04,626.92 444.02,625.90"/>
    </edge>
    <edge id=":117_0" function="internal">
        <lane id=":117_0_0" index="0" disallow="tram rail_urban rail rail_electric rail_fast ship" speed="6.60" length="8.71" shape="1477.26,636.54 1475.13,637.42 1473.73,638.81 1473.06,640.71 1473.13,643.13"/>
    </edge>
    <edge id=":117_1" function="internal">
        <lane id=":117_1_0" index="0" disallow="tram rail_urban rail rail_electric rail_fast ship" speed="27.78" length="10.53" shape="1477.26,636.54 1467.02,639.02"/>
    </edge>
    <edge id=":117_2" function="internal">
        <lane id=":117_2_0" index="0" disallow="tram rail_urban rail rail_electric rail_fast ship" speed="3.65" length="1.44" shape="1477.26,636.54 1475.90,636.05"/>
    </edge>
    <edge id=":117_6" function="internal">
        <lane id=":117_6_0" index="0" disallow="tram rail_urban rail rail_electric rail_fast ship" speed="3.65" length="3.23" shape="1475.90,636.05 1475.31,635.37 1475.51,634.50 1476.48,633.43"/>
    </edge>
    <edge id=":117_3" function="internal">
        <lane id=":117_3_0" index="0" disallow="tram rail_urban rail rail_electric rail_fast ship" speed="27.78" length="10.47" shape="1466.31,635.90 1476.48,633.43"/>
    </edge>
    <edge id=":117_4" function="internal">
        <lane id=":117_4_0" index="0" disallow="tram rail_urban rail rail_electric rail_fast ship" speed="7.06" length="2.47" shape="1466.31,635.90 1468.78,635.88"/>
    </edge>
    <edge id=":117_5" function="internal">
        <lane id=":117_5_0" index="0" disallow="tram rail_urban rail rail_electric rail_fast ship" speed="3.65" length="1.44" shape="1466.31,635.90 1467.66,636.41"/>
    </edge>
    <edge id=":117_7" function="internal">
        <lane id=":117_7_0" index="0" disallow="tram rail_urban rail rail_electric rail_fast ship" speed="7.06" length="8.87" shape="1468.78,635.88 1470.74,637.08 1472.19,639.50 1473.13,643.13"/>
    </edge>
    <edge id=":117_8" function="internal">
        <lane id=":117_8_0" index="0" disallow="tram rail_urban rail rail_electric rail_fast ship" speed="3.65" length="3.23" shape="1467.66,636.41 1468.22,637.10 1468.01,637.97 1467.02,639.02"/>
    </edge>
    <edge id=":118_0" function="internal">
        <lane id=":118_0_0" index="0" disallow="tram rail_urban rail rail_electric rail_fast ship" speed="3.97" length="1.91" shape="2087.80,187.57 2087.78,187.07 2087.90,186.63 2088.15,186.26 2088.55,185.95"/>
    </edge>
    <edge id=":119_0" function="internal">
        <lane id=":119_0_0" index="0" disallow="tram rail_urban rail rail_electric rail_fast ship" speed="13.89" length="0.26" shape="1813.76,222.84 1813.50,222.88"/>
    </edge>
    <edge id=":120_0" function="internal">
        <lane id=":120_0_0" index="0" disallow="tram rail_urban rail rail_electric rail_fast ship" speed="13.89" length="0.30" shape="1986.71,716.57 1986.48,716.39"/>
    </edge>
    <edge id=":124_0" function="internal">
        <lane id=":124_0_0" index="0" disallow="tram rail_urban rail rail_electric rail_fast ship" speed="27.78" length="0.30" shape="1389.74,676.37 1389.48,676.53"/>
    </edge>
    <edge id=":124_1" function="internal">
        <lane id=":124_1_0" index="0" disallow="tram rail_urban rail rail_electric rail_fast ship" speed="3.65" length="2.34" shape="1389.74,676.37 1388.30,676.35 1387.52,675.90"/>
    </edge>
    <edge id=":124_4" function="internal">
        <lane id=":124_4_0" index="0" disallow="tram rail_urban rail rail_electric rail_fast ship" speed="3.65" length="2.34" shape="1387.52,675.90 1387.42,675.01 1387.99,673.69"/>
    </edge>
    <edge id=":124_2" function="internal">
        <lane id=":124_2_0" index="0" disallow="tram rail_urban rail rail_electric rail_fast ship" speed="27.78" length="0.29" shape="1387.75,673.85 1387.99,673.69"/>
    </edge>
    <edge id=":124_3" function="internal">
        <lane id=":124_3_0" index="0" disallow="tram rail_urban rail rail_electric rail_fast ship" speed="3.65" length="2.34" shape="1387.75,673.85 1389.19,673.87 1389.96,674.32"/>
    </edge>
    <edge id=":124_5" function="internal">
        <lane id=":124_5_0" index="0" disallow="tram rail_urban rail rail_electric rail_fast ship" speed="3.65" length="2.34" shape="1389.96,674.32 1390.06,675.21 1389.48,676.53"/>
    </edge>
    <edge id=":127_0" function="internal">
        <lane id=":127_0_0" index="0" disallow="tram rail_urban rail rail_electric rail_fast ship" speed="20.84" length="0.29" shape="1528.42,354.76 1528.38,354.47"/>
    </edge>
    <edge id=":129_0" function="internal">
        <lane id=":129_0_0" index="0" disallow="tram rail_urban rail rail_electric rail_fast ship" speed="22.22" length="0.18" shape="1916.45,1532.35 1916.31,1532.23"/>
    </edge>
    <edge id=":130_0" function="internal">
        <lane id=":130_0_0" index="0" disallow="tram rail_urban rail rail_electric rail_fast ship" speed="6.08" length="9.06" shape="1837.27,1091.35 1835.79,1089.26 1834.06,1088.31 1832.11,1088.52 1829.93,1089.86"/>
    </edge>
    <edge id=":130_1" function="internal">
        <lane id=":130_1_0" index="0" disallow="tram rail_urban rail rail_electric rail_fast ship" speed="10.16" length="14.31" shape="1837.27,1091.35 1835.72,1087.52 1835.15,1083.98 1835.55,1080.71 1836.94,1077.73"/>
    </edge>
    <edge id=":130_2" function="internal">
        <lane id=":130_2_0" index="0" disallow="tram rail_urban rail rail_electric rail_fast ship" speed="3.65" length="4.67" shape="1837.27,1091.35 1837.44,1089.92 1837.96,1089.20 1838.86,1089.19 1840.12,1089.89"/>
    </edge>
    <edge id=":130_3" function="internal">
        <lane id=":130_3_0" index="0" disallow="tram rail_urban rail rail_electric rail_fast ship" speed="8.94" length="10.92" shape="1839.61,1079.49 1838.62,1081.69 1838.38,1084.15 1838.88,1086.89 1840.12,1089.89"/>
    </edge>
    <edge id=":130_4" function="internal">
        <lane id=":130_4_0" index="0" disallow="tram rail_urban rail rail_electric rail_fast ship" speed="13.89" length="14.24" shape="1839.61,1079.49 1837.47,1082.42 1835.17,1085.04 1832.67,1087.48 1829.93,1089.86"/>
    </edge>
    <edge id=":130_5" function="internal">
        <lane id=":130_5_0" index="0" disallow="tram rail_urban rail rail_electric rail_fast ship" speed="3.65" length="1.44" shape="1839.61,1079.49 1838.28,1080.05"/>
    </edge>
    <edge id=":130_9" function="internal">
        <lane id=":130_9_0" index="0" disallow="tram rail_urban rail rail_electric rail_fast ship" speed="3.65" length="3.23" shape="1838.28,1080.05 1837.39,1079.95 1836.94,1079.17 1836.94,1077.73"/>
    </edge>
    <edge id=":130_6" function="internal">
        <lane id=":130_6_0" index="0" disallow="tram rail_urban rail rail_electric rail_fast ship" speed="13.89" length="13.31" shape="1827.87,1087.41 1830.52,1085.13 1832.81,1082.93 1834.90,1080.55 1836.94,1077.73"/>
    </edge>
    <edge id=":130_7" function="internal">
        <lane id=":130_7_0" index="0" disallow="tram rail_urban rail rail_electric rail_fast ship" speed="7.66" length="4.12" shape="1827.87,1087.41 1831.39,1085.24"/>
    </edge>
    <edge id=":130_8" function="internal">
        <lane id=":130_8_0" index="0" disallow="tram rail_urban rail rail_electric rail_fast ship" speed="3.65" length="1.44" shape="1827.87,1087.41 1829.31,1087.25"/>
    </edge>
    <edge id=":130_10" function="internal">
        <lane id=":130_10_0" index="0" disallow="tram rail_urban rail rail_electric rail_fast ship" speed="7.66" length="10.98" shape="1831.39,1085.24 1831.52,1085.16 1834.77,1084.83 1837.64,1086.40 1840.12,1089.89"/>
    </edge>
    <edge id=":130_11" function="internal">
        <lane id=":130_11_0" index="0" disallow="tram rail_urban rail rail_electric rail_fast ship" speed="3.65" length="3.23" shape="1829.31,1087.25 1830.13,1087.61 1830.33,1088.48 1829.93,1089.86"/>
    </edge>
    <edge id=":132_0" function="internal">
        <lane id=":132_0_0" index="0" disallow="tram rail_urban rail rail_electric rail_fast ship" speed="27.78" length="15.37" shape="1767.63,1122.97 1765.23,1107.79"/>
    </edge>
    <edge id=":132_1" function="internal">
        <lane id=":132_1_0" index="0" disallow="tram rail_urban rail rail_electric rail_fast ship" speed="9.75" length="17.62" shape="1767.63,1122.97 1767.82,1119.31 1769.63,1116.00 1773.04,1113.04 1778.06,1110.42"/>
    </edge>
    <edge id=":132_2" function="internal">
        <lane id=":132_2_0" index="0" disallow="tram rail_urban rail rail_electric rail_fast ship" speed="3.65" length="4.67" shape="1767.63,1122.97 1768.23,1121.66 1768.96,1121.14 1769.81,1121.41 1770.79,1122.47"/>
    </edge>
    <edge id=":132_3" function="internal">
        <lane id=":132_3_0" index="0" disallow="tram rail_urban rail rail_electric rail_fast ship" speed="8.55" length="13.36" shape="1779.30,1113.37 1775.27,1115.41 1772.50,1117.60 1771.01,1119.96 1770.79,1122.47"/>
    </edge>
    <edge id=":132_4" function="internal">
        <lane id=":132_4_0" index="0" disallow="tram rail_urban rail rail_electric rail_fast ship" speed="8.33" length="5.97" shape="1779.30,1113.37 1773.78,1114.97 1773.55,1114.95"/>
    </edge>
    <edge id=":132_5" function="internal">
        <lane id=":132_5_0" index="0" disallow="tram rail_urban rail rail_electric rail_fast ship" speed="3.65" length="1.44" shape="1779.30,1113.37 1777.88,1113.10"/>
    </edge>
    <edge id=":132_12" function="internal">
        <lane id=":132_12_0" index="0" disallow="tram rail_urban rail rail_electric rail_fast ship" speed="8.33" length="12.34" shape="1773.55,1114.95 1769.60,1114.57 1766.74,1112.17 1765.23,1107.79"/>
    </edge>
    <edge id=":132_13" function="internal">
        <lane id=":132_13_0" index="0" disallow="tram rail_urban rail rail_electric rail_fast ship" speed="3.65" length="3.23" shape="1777.88,1113.10 1777.20,1112.52 1777.26,1111.62 1778.06,1110.42"/>
    </edge>
    <edge id=":132_6" function="internal">
        <lane id=":132_6_0" index="0" disallow="tram rail_urban rail rail_electric rail_fast ship" speed="6.05" length="9.07" shape="1771.55,1106.79 1772.31,1109.25 1773.65,1110.68 1775.57,1111.07 1778.06,1110.42"/>
    </edge>
    <edge id=":132_7" function="internal">
        <lane id=":132_7_0" index="0" disallow="tram rail_urban rail rail_electric rail_fast ship" speed="27.78" length="15.77" shape="1771.55,1106.79 1771.84,1111.82 1771.33,1115.69 1770.75,1119.03 1770.79,1122.47"/>
    </edge>
    <edge id=":132_8" function="internal">
        <lane id=":132_8_0" index="0" disallow="tram rail_urban rail rail_electric rail_fast ship" speed="3.65" length="4.67" shape="1768.39,1107.29 1767.79,1108.60 1767.06,1109.12 1766.21,1108.85 1765.23,1107.79"/>
    </edge>
    <edge id=":132_9" function="internal">
        <lane id=":132_9_0" index="0" disallow="tram rail_urban rail rail_electric rail_fast ship" speed="7.28" length="10.85" shape="1760.81,1116.44 1763.17,1115.39 1764.70,1113.60 1765.38,1111.06 1765.23,1107.79"/>
    </edge>
    <edge id=":132_10" function="internal">
        <lane id=":132_10_0" index="0" disallow="tram rail_urban rail rail_electric rail_fast ship" speed="15.28" length="18.29" shape="1760.81,1116.44 1764.90,1115.27 1769.53,1113.71 1774.10,1112.01 1778.06,1110.42"/>
    </edge>
    <edge id=":132_11" function="internal">
        <lane id=":132_11_0" index="0" disallow="tram rail_urban rail rail_electric rail_fast ship" speed="7.61" length="10.32" shape="1760.81,1116.44 1764.69,1116.03 1767.65,1116.89 1769.68,1119.04 1769.80,1119.40"/>
    </edge>
    <edge id=":132_14" function="internal">
        <lane id=":132_14_0" index="0" disallow="tram rail_urban rail rail_electric rail_fast ship" speed="7.61" length="3.23" shape="1769.80,1119.40 1770.79,1122.47"/>
    </edge>
    <edge id=":133_0" function="internal">
        <lane id=":133_0_0" index="0" disallow="tram rail_urban rail rail_electric rail_fast ship" speed="6.24" length="9.05" shape="1930.07,976.34 1929.35,973.92 1928.03,972.42 1926.12,971.84 1923.62,972.18"/>
    </edge>
    <edge id=":133_1" function="internal">
        <lane id=":133_1_0" index="0" disallow="tram rail_urban rail rail_electric rail_fast ship" speed="7.46" length="12.13" shape="1930.07,976.34 1929.83,972.29 1930.44,969.27 1931.92,967.29 1934.25,966.34"/>
    </edge>
    <edge id=":133_2" function="internal">
        <lane id=":133_2_0" index="0" disallow="tram rail_urban rail rail_electric rail_fast ship" speed="13.89" length="11.84" shape="1922.74,969.10 1925.87,968.20 1928.44,967.50 1931.04,966.91 1934.25,966.34"/>
    </edge>
    <edge id=":133_3" function="internal">
        <lane id=":133_3_0" index="0" disallow="tram rail_urban rail rail_electric rail_fast ship" speed="3.65" length="4.67" shape="1922.74,969.10 1924.12,969.54 1924.72,970.20 1924.55,971.08 1923.62,972.18"/>
    </edge>
    <edge id=":134_0" function="internal">
        <lane id=":134_0_0" index="0" disallow="tram rail_urban rail rail_electric rail_fast ship" speed="18.05" length="5.82" shape="2071.07,1328.70 2069.90,1329.96 2068.99,1330.71 2067.98,1331.34 2066.48,1332.20"/>
    </edge>
    <edge id=":135_0" function="internal">
        <lane id=":135_0_0" index="0" disallow="tram rail_urban rail rail_electric rail_fast ship" speed="6.08" length="7.74" shape="1837.42,1205.37 1837.38,1203.25 1838.02,1201.62 1839.36,1200.49 1841.38,1199.85"/>
    </edge>
    <edge id=":135_1" function="internal">
        <lane id=":135_1_0" index="0" disallow="tram rail_urban rail rail_electric rail_fast ship" speed="3.65" length="1.44" shape="1837.42,1205.37 1838.02,1204.06"/>
    </edge>
    <edge id=":135_4" function="internal">
        <lane id=":135_4_0" index="0" disallow="tram rail_urban rail rail_electric rail_fast ship" speed="3.65" length="3.23" shape="1838.02,1204.06 1838.74,1203.53 1839.59,1203.80 1840.58,1204.85"/>
    </edge>
    <edge id=":135_2" function="internal">
        <lane id=":135_2_0" index="0" disallow="tram rail_urban rail rail_electric rail_fast ship" speed="3.90" length="2.58" shape="1841.90,1203.01 1841.22,1203.22 1840.78,1203.60 1840.56,1204.14 1840.58,1204.85"/>
    </edge>
    <edge id=":135_3" function="internal">
        <lane id=":135_3_0" index="0" disallow="tram rail_urban rail rail_electric rail_fast ship" speed="3.65" length="1.30" shape="1841.90,1203.01 1840.71,1202.47"/>
    </edge>