<?xml version="1.0" encoding="UTF-8"?>

<!-- generated on 2022-10-09 20:13:08 by Eclipse SUMO netconvert Version 1.12.0
<configuration xmlns:xsi="http://www.w3.org/2001/XMLSchema-instance" xsi:noNamespaceSchemaLocation="http://sumo.dlr.de/xsd/netconvertConfiguration.xsd">

    <input>
        <sumo-net-file value="/home/svadlmat/UTC/utc/data/maps/sumo/Sydney.net.xml"/>
    </input>

    <output>
        <output-file value="/home/svadlmat/UTC/utc/data/scenarios/19_59_48_sydney/maps/networks/19_59_48_sydney_similarity_average_similarity_sg.net.xml"/>
    </output>

    <processing>
        <geometry.min-radius.fix.railways value="false"/>
        <geometry.max-grade.fix value="false"/>
        <offset.disable-normalization value="true"/>
        <lefthand value="false"/>
    </processing>

    <edge_removal>
        <keep-edges.explicit value="283,1059,21,758,405,752,895,127,335,543,923,55,840,1003,640,38,52,896,1006,164,286,553,399,548,131,386,306,552,174,483,161,1012,764,760,926,1007,924,411,285,305,858,713,897,958,742,721,919,809,380,891,736,658,839,448,637,288,505,379,53,674,741,882,708,822,8,726,864,880,472,19,125,909,235,865,587,338,829,371,1013,389,406,629,1004,367,759,197,915,778,84,213,627,390,16,480,826,387,210,942,750,394,602,342,876,485,1005,948,13,883,603,783,1038,631,890,834,407,254,331,894,415,710,983,126,211,333,261,907,318,378,233,501,996,551,719,793,959,766,212,341,503,513,266,735,159,734,550,1009,248,774,904,315,430,506,862,377,477,595,751,875,903,604,498,12,292,228,1014,547,554,952,968,739,628,435,833,269,805,268,252,1057,583,810,688,641,639,812,18,428,284,86,504,544,920,14,779,730,611,502,89,388,630,249,449,605,941,794,426,410,62,777,725,821,615,828,797,830,130,940,749,232,559,916,874,546,638,486,340,731,6,512,811,964,175,957,56,427,770,892,908,893,487,287,424,886,511,347,761,447,478,938,588,373,229,931,781,98,796,711,9,906,15,425,922,1017,747,795,253,737,376,20,728,381,881,699,339,400,471,729,11,861,157,423,536,332,10,733,732,827,520,988,905,110,782,17,765,391,767,132,740,768,54,129,879,967,887,479,372,1002,748,712,972,594,549,267,496,90,374,385,738,954"/>
    </edge_removal>

    <junctions>
        <no-turnarounds value="true"/>
        <junctions.corner-detail value="5"/>
        <junctions.limit-turn-speed value="5.5"/>
        <rectangular-lane-cut value="false"/>
    </junctions>

    <pedestrian>
        <walkingareas value="false"/>
    </pedestrian>

    <report>
        <aggregate-warnings value="5"/>
    </report>

</configuration>
-->

<net version="1.9" junctionCornerDetail="5" limitTurnSpeed="5.50" xmlns:xsi="http://www.w3.org/2001/XMLSchema-instance" xsi:noNamespaceSchemaLocation="http://sumo.dlr.de/xsd/net_file.xsd">

    <location netOffset="-336586.08,3754670.31" convBoundary="0.00,12.34,2488.61,2196.77" origBoundary="151.232525,-33.920080,151.266296,-33.899237" projParameter="+proj=utm +zone=56 +ellps=WGS84 +datum=WGS84 +units=m +no_defs"/>

    <type id="highway.bridleway" priority="1" numLanes="1" speed="2.78" allow="pedestrian" oneway="1" width="2.00"/>
    <type id="highway.bus_guideway" priority="1" numLanes="1" speed="27.78" allow="bus" oneway="1"/>
    <type id="highway.cycleway" priority="1" numLanes="1" speed="8.33" allow="bicycle" oneway="0" width="1.00"/>
    <type id="highway.footway" priority="1" numLanes="1" speed="2.78" allow="pedestrian" oneway="1" width="2.00"/>
    <type id="highway.ford" priority="1" numLanes="1" speed="2.78" allow="army" oneway="0"/>
    <type id="highway.living_street" priority="2" numLanes="1" speed="2.78" disallow="tram rail_urban rail rail_electric rail_fast ship" oneway="0"/>
    <type id="highway.motorway" priority="14" numLanes="2" speed="39.44" allow="private emergency authority army vip passenger hov taxi bus coach delivery truck trailer motorcycle evehicle custom1 custom2" oneway="1"/>
    <type id="highway.motorway_link" priority="9" numLanes="1" speed="22.22" allow="private emergency authority army vip passenger hov taxi bus coach delivery truck trailer motorcycle evehicle custom1 custom2" oneway="1"/>
    <type id="highway.path" priority="1" numLanes="1" speed="2.78" allow="pedestrian bicycle" oneway="0" width="2.00"/>
    <type id="highway.pedestrian" priority="1" numLanes="1" speed="2.78" allow="pedestrian" oneway="1" width="2.00"/>
    <type id="highway.primary" priority="12" numLanes="2" speed="27.78" disallow="tram rail_urban rail rail_electric rail_fast ship" oneway="0"/>
    <type id="highway.primary_link" priority="7" numLanes="1" speed="22.22" disallow="tram rail_urban rail rail_electric rail_fast ship" oneway="0"/>
    <type id="highway.raceway" priority="15" numLanes="2" speed="83.33" allow="vip" oneway="0"/>
    <type id="highway.residential" priority="3" numLanes="1" speed="13.89" disallow="tram rail_urban rail rail_electric rail_fast ship" oneway="0"/>
    <type id="highway.secondary" priority="11" numLanes="1" speed="27.78" disallow="tram rail_urban rail rail_electric rail_fast ship" oneway="0"/>
    <type id="highway.secondary_link" priority="6" numLanes="1" speed="22.22" disallow="tram rail_urban rail rail_electric rail_fast ship" oneway="0"/>
    <type id="highway.service" priority="1" numLanes="1" speed="5.56" allow="pedestrian delivery bicycle" oneway="0"/>
    <type id="highway.stairs" priority="1" numLanes="1" speed="1.39" allow="pedestrian" oneway="1" width="2.00"/>
    <type id="highway.step" priority="1" numLanes="1" speed="1.39" allow="pedestrian" oneway="1" width="2.00"/>
    <type id="highway.steps" priority="1" numLanes="1" speed="1.39" allow="pedestrian" oneway="1" width="2.00"/>
    <type id="highway.tertiary" priority="10" numLanes="1" speed="22.22" disallow="tram rail_urban rail rail_electric rail_fast ship" oneway="0"/>
    <type id="highway.tertiary_link" priority="5" numLanes="1" speed="22.22" disallow="tram rail_urban rail rail_electric rail_fast ship" oneway="0"/>
    <type id="highway.track" priority="1" numLanes="1" speed="5.56" allow="pedestrian motorcycle moped bicycle" oneway="0"/>
    <type id="highway.trunk" priority="13" numLanes="2" speed="27.78" disallow="pedestrian bicycle tram rail_urban rail rail_electric rail_fast ship" oneway="0"/>
    <type id="highway.trunk_link" priority="8" numLanes="1" speed="22.22" disallow="pedestrian bicycle tram rail_urban rail rail_electric rail_fast ship" oneway="0"/>
    <type id="highway.unclassified" priority="4" numLanes="1" speed="13.89" disallow="tram rail_urban rail rail_electric rail_fast ship" oneway="0"/>
    <type id="highway.unsurfaced" priority="1" numLanes="1" speed="8.33" disallow="tram rail_urban rail rail_electric rail_fast ship" oneway="0"/>
    <type id="railway.highspeed" priority="21" numLanes="1" speed="69.44" allow="rail_fast" oneway="1"/>
    <type id="railway.light_rail" priority="19" numLanes="1" speed="27.78" allow="rail_urban" oneway="1"/>
    <type id="railway.preserved" priority="16" numLanes="1" speed="27.78" allow="rail" oneway="1"/>
    <type id="railway.rail" priority="20" numLanes="1" speed="44.44" allow="rail" oneway="1"/>
    <type id="railway.subway" priority="18" numLanes="1" speed="27.78" allow="rail_urban" oneway="1"/>
    <type id="railway.tram" priority="17" numLanes="1" speed="13.89" allow="tram" oneway="1"/>

    <edge id=":101_0" function="internal">
        <lane id=":101_0_0" index="0" disallow="tram rail_urban rail rail_electric rail_fast ship" speed="22.22" length="0.30" shape="1704.65,593.35 1704.35,593.39"/>
    </edge>
    <edge id=":103_0" function="internal">
        <lane id=":103_0_0" index="0" disallow="tram rail_urban rail rail_electric rail_fast ship" speed="3.91" length="2.53" shape="2204.42,247.48 2203.76,247.68 2203.32,248.05 2203.10,248.58 2203.09,249.27"/>
    </edge>
    <edge id=":104_0" function="internal">
        <lane id=":104_0_0" index="0" disallow="tram rail_urban rail rail_electric rail_fast ship" speed="13.89" length="0.30" shape="1533.26,384.79 1533.22,384.50"/>
    </edge>
    <edge id=":107_0" function="internal">
        <lane id=":107_0_0" index="0" disallow="tram rail_urban rail rail_electric rail_fast ship" speed="13.89" length="0.30" shape="947.76,196.75 948.05,196.69"/>
    </edge>
    <edge id=":108_0" function="internal">
        <lane id=":108_0_0" index="0" disallow="tram rail_urban rail rail_electric rail_fast ship" speed="13.89" length="10.68" shape="2321.54,222.48 2323.11,233.04"/>
    </edge>
    <edge id=":108_1" function="internal">
        <lane id=":108_1_0" index="0" disallow="tram rail_urban rail rail_electric rail_fast ship" speed="6.57" length="8.75" shape="2321.54,222.48 2321.53,224.82 2320.76,226.65 2319.25,227.97 2316.97,228.78"/>
    </edge>
    <edge id=":112_0" function="internal">
        <lane id=":112_0_0" index="0" disallow="tram rail_urban rail rail_electric rail_fast ship" speed="13.89" length="0.29" shape="1406.88,301.46 1407.17,301.42"/>
    </edge>
    <edge id=":113_0" function="internal">
        <lane id=":113_0_0" index="0" disallow="tram rail_urban rail rail_electric rail_fast ship" speed="27.78" length="0.30" shape="1489.79,115.20 1489.75,114.90"/>
    </edge>
    <edge id=":116_0" function="internal">
        <lane id=":116_0_0" index="0" disallow="tram rail_urban rail rail_electric rail_fast ship" speed="13.89" length="0.29" shape="444.08,626.20 444.03,625.92"/>
    </edge>
    <edge id=":117_0" function="internal">
        <lane id=":117_0_0" index="0" disallow="tram rail_urban rail rail_electric rail_fast ship" speed="27.78" length="0.31" shape="1470.97,638.11 1470.67,638.18"/>
    </edge>
    <edge id=":117_1" function="internal">
        <lane id=":117_1_0" index="0" disallow="tram rail_urban rail rail_electric rail_fast ship" speed="3.65" length="2.34" shape="1470.97,638.11 1469.62,637.62 1469.03,636.94"/>
    </edge>
    <edge id=":117_4" function="internal">
        <lane id=":117_4_0" index="0" disallow="tram rail_urban rail rail_electric rail_fast ship" speed="3.65" length="2.34" shape="1469.03,636.94 1469.23,636.07 1470.20,635.00"/>
    </edge>
    <edge id=":117_2" function="internal">
        <lane id=":117_2_0" index="0" disallow="tram rail_urban rail rail_electric rail_fast ship" speed="27.78" length="0.25" shape="1469.95,635.06 1470.20,635.00"/>
    </edge>
    <edge id=":117_3" function="internal">
        <lane id=":117_3_0" index="0" disallow="tram rail_urban rail rail_electric rail_fast ship" speed="3.65" length="2.34" shape="1469.95,635.06 1471.30,635.57 1471.87,636.26"/>
    </edge>
    <edge id=":117_5" function="internal">
        <lane id=":117_5_0" index="0" disallow="tram rail_urban rail rail_electric rail_fast ship" speed="3.65" length="2.34" shape="1471.87,636.26 1471.66,637.13 1470.67,638.18"/>
    </edge>
    <edge id=":120_0" function="internal">
        <lane id=":120_0_0" index="0" disallow="tram rail_urban rail rail_electric rail_fast ship" speed="13.89" length="0.30" shape="1988.43,713.85 1988.66,714.03"/>
    </edge>
    <edge id=":122_0" function="internal">
        <lane id=":122_0_0" index="0" disallow="tram rail_urban rail rail_electric rail_fast ship" speed="3.91" length="2.52" shape="2211.73,313.54 2211.72,314.22 2211.50,314.75 2211.06,315.12 2210.41,315.33"/>
    </edge>
    <edge id=":124_0" function="internal">
        <lane id=":124_0_0" index="0" disallow="tram rail_urban rail rail_electric rail_fast ship" speed="27.78" length="0.30" shape="1389.74,676.37 1389.48,676.53"/>
    </edge>
    <edge id=":124_1" function="internal">
        <lane id=":124_1_0" index="0" disallow="tram rail_urban rail rail_electric rail_fast ship" speed="3.65" length="2.34" shape="1389.74,676.37 1388.30,676.35 1387.52,675.90"/>
    </edge>
    <edge id=":124_4" function="internal">
        <lane id=":124_4_0" index="0" disallow="tram rail_urban rail rail_electric rail_fast ship" speed="3.65" length="2.34" shape="1387.52,675.90 1387.42,675.01 1387.99,673.69"/>
    </edge>
    <edge id=":124_2" function="internal">
        <lane id=":124_2_0" index="0" disallow="tram rail_urban rail rail_electric rail_fast ship" speed="27.78" length="0.29" shape="1387.75,673.85 1387.99,673.69"/>
    </edge>
    <edge id=":124_3" function="internal">
        <lane id=":124_3_0" index="0" disallow="tram rail_urban rail rail_electric rail_fast ship" speed="3.65" length="2.34" shape="1387.75,673.85 1389.19,673.87 1389.96,674.32"/>
    </edge>
    <edge id=":124_5" function="internal">
        <lane id=":124_5_0" index="0" disallow="tram rail_urban rail rail_electric rail_fast ship" speed="3.65" length="2.34" shape="1389.96,674.32 1390.06,675.21 1389.48,676.53"/>
    </edge>
    <edge id=":127_0" function="internal">
        <lane id=":127_0_0" index="0" disallow="tram rail_urban rail rail_electric rail_fast ship" speed="20.84" length="0.29" shape="1528.42,354.76 1528.38,354.47"/>
    </edge>
    <edge id=":129_0" function="internal">
        <lane id=":129_0_0" index="0" disallow="tram rail_urban rail rail_electric rail_fast ship" speed="22.22" length="0.18" shape="1916.45,1532.35 1916.31,1532.23"/>
    </edge>
    <edge id=":130_0" function="internal">
        <lane id=":130_0_0" index="0" disallow="tram rail_urban rail rail_electric rail_fast ship" speed="13.89" length="0.47" shape="1836.38,1084.39 1836.30,1084.51 1836.24,1084.58 1836.17,1084.65 1836.07,1084.74"/>
    </edge>
    <edge id=":132_0" function="internal">
        <lane id=":132_0_0" index="0" disallow="tram rail_urban rail rail_electric rail_fast ship" speed="15.28" length="14.19" shape="1778.28,1113.80 1774.94,1115.21 1771.73,1116.54 1768.47,1117.72 1764.99,1118.72"/>
    </edge>
    <edge id=":132_1" function="internal">
        <lane id=":132_1_0" index="0" disallow="tram rail_urban rail rail_electric rail_fast ship" speed="6.96" length="9.82" shape="1768.95,1110.86 1769.10,1113.84 1768.49,1116.14 1767.12,1117.77 1764.99,1118.72"/>
    </edge>
    <edge id=":133_0" function="internal">
        <lane id=":133_0_0" index="0" disallow="tram rail_urban rail rail_electric rail_fast ship" speed="13.89" length="0.20" shape="1930.98,970.09 1930.92,970.10 1930.88,970.11 1930.85,970.12 1930.79,970.13"/>
    </edge>
    <edge id=":134_0" function="internal">
        <lane id=":134_0_0" index="0" disallow="tram rail_urban rail rail_electric rail_fast ship" speed="18.05" length="5.71" shape="2070.65,1329.19 2069.48,1330.40 2068.55,1331.08 2067.52,1331.64 2066.03,1332.47"/>
    </edge>
    <edge id=":136_0" function="internal">
        <lane id=":136_0_0" index="0" disallow="tram rail_urban rail rail_electric rail_fast ship" speed="22.23" length="8.26" shape="1765.00,1086.42 1765.98,1088.71 1767.35,1090.01 1768.68,1091.31 1769.53,1093.63"/>
        <lane id=":136_0_1" index="1" disallow="tram rail_urban rail rail_electric rail_fast ship" speed="22.23" length="8.26" shape="1765.00,1086.42 1766.37,1094.10"/>
    </edge>
    <edge id=":142_0" function="internal">
        <lane id=":142_0_0" index="0" disallow="tram rail_urban rail rail_electric rail_fast ship" speed="10.69" length="4.87" shape="2069.55,1337.10 2069.83,1338.45 2069.67,1339.41 2069.29,1340.40 2068.91,1341.80"/>
    </edge>
    <edge id=":143_0" function="internal">
        <lane id=":143_0_0" index="0" disallow="tram rail_urban rail rail_electric rail_fast ship" speed="6.56" length="8.84" shape="2013.03,1483.13 2010.68,1482.48 2008.67,1482.71 2006.99,1483.80 2005.65,1485.76"/>
    </edge>
    <edge id=":143_1" function="internal">
        <lane id=":143_1_0" index="0" disallow="tram rail_urban rail rail_electric rail_fast ship" speed="11.11" length="10.79" shape="2010.35,1476.04 2005.65,1485.76"/>
    </edge>
    <edge id=":148_0" function="internal">
        <lane id=":148_0_0" index="0" disallow="tram rail_urban rail rail_electric rail_fast ship" speed="3.90" length="2.62" shape="1771.98,1445.41 1771.26,1445.51 1770.75,1445.81 1770.45,1446.32 1770.36,1447.03"/>
    </edge>
    <edge id=":150_0" function="internal">
        <lane id=":150_0_0" index="0" disallow="tram rail_urban rail rail_electric rail_fast ship" speed="11.11" length="0.30" shape="2183.66,1457.19 2183.37,1457.24"/>
    </edge>
    <edge id=":152_0" function="internal">
        <lane id=":152_0_0" index="0" disallow="tram rail_urban rail rail_electric rail_fast ship" speed="13.89" length="11.18" shape="356.83,1065.68 355.22,1054.61"/>
    </edge>
    <edge id=":152_1" function="internal">
        <lane id=":152_1_0" index="0" disallow="tram rail_urban rail rail_electric rail_fast ship" speed="6.51" length="4.10" shape="361.56,1059.35 359.09,1059.35 357.59,1058.72"/>
    </edge>
    <edge id=":152_2" function="internal">
        <lane id=":152_2_0" index="0" disallow="tram rail_urban rail rail_electric rail_fast ship" speed="6.51" length="4.92" shape="357.59,1058.72 357.21,1058.56 355.92,1056.98 355.22,1054.61"/>
    </edge>
    <edge id=":153_0" function="internal">
        <lane id=":153_0_0" index="0" disallow="tram rail_urban rail rail_electric rail_fast ship" speed="13.89" length="9.93" shape="515.82,1667.59 507.62,1661.99"/>
    </edge>
    <edge id=":153_1" function="internal">
        <lane id=":153_1_0" index="0" disallow="tram rail_urban rail rail_electric rail_fast ship" speed="6.73" length="3.63" shape="515.17,1660.88 513.32,1662.35 512.13,1662.78"/>
    </edge>
    <edge id=":153_2" function="internal">
        <lane id=":153_2_0" index="0" disallow="tram rail_urban rail rail_electric rail_fast ship" speed="6.73" length="4.77" shape="512.13,1662.78 511.44,1663.03 509.54,1662.91 507.62,1661.99"/>
    </edge>
    <edge id=":154_0" function="internal">
        <lane id=":154_0_0" index="0" disallow="tram rail_urban rail rail_electric rail_fast ship" speed="8.48" length="4.00" shape="535.65,1825.31 535.65,1829.31"/>
    </edge>
    <edge id=":155_0" function="internal">
        <lane id=":155_0_0" index="0" disallow="tram rail_urban rail rail_electric rail_fast ship" speed="15.28" length="0.30" shape="581.01,1198.51 580.72,1198.55"/>
    </edge>
    <edge id=":156_0" function="internal">
        <lane id=":156_0_0" index="0" disallow="tram rail_urban rail rail_electric rail_fast ship" speed="6.51" length="9.03" shape="794.98,1706.15 794.27,1703.78 792.98,1702.20 791.09,1701.42 788.62,1701.44"/>
    </edge>
    <edge id=":156_1" function="internal">
        <lane id=":156_1_0" index="0" disallow="tram rail_urban rail rail_electric rail_fast ship" speed="13.89" length="11.20" shape="794.98,1706.15 793.33,1695.07"/>
    </edge>
    <edge id=":156_2" function="internal">
        <lane id=":156_2_0" index="0" disallow="tram rail_urban rail rail_electric rail_fast ship" speed="3.65" length="1.44" shape="794.98,1706.15 795.60,1704.84"/>
    </edge>
    <edge id=":156_6" function="internal">
        <lane id=":156_6_0" index="0" disallow="tram rail_urban rail rail_electric rail_fast ship" speed="3.65" length="3.23" shape="795.60,1704.84 796.33,1704.33 797.18,1704.60 798.15,1705.67"/>
    </edge>
    <edge id=":156_3" function="internal">
        <lane id=":156_3_0" index="0" disallow="tram rail_urban rail rail_electric rail_fast ship" speed="13.89" length="11.20" shape="796.49,1694.60 798.15,1705.67"/>
    </edge>
    <edge id=":156_4" function="internal">
        <lane id=":156_4_0" index="0" disallow="tram rail_urban rail rail_electric rail_fast ship" speed="7.33" length="2.51" shape="796.49,1694.60 796.31,1697.10"/>
    </edge>
    <edge id=":156_5" function="internal">
        <lane id=":156_5_0" index="0" disallow="tram rail_urban rail rail_electric rail_fast ship" speed="3.65" length="1.44" shape="796.49,1694.60 795.88,1695.90"/>
    </edge>
    <edge id=":156_7" function="internal">
        <lane id=":156_7_0" index="0" disallow="tram rail_urban rail rail_electric rail_fast ship" speed="7.33" length="9.21" shape="796.31,1697.10 794.94,1699.08 792.37,1700.52 788.62,1701.44"/>
    </edge>
    <edge id=":156_8" function="internal">
        <lane id=":156_8_0" index="0" disallow="tram rail_urban rail rail_electric rail_fast ship" speed="3.65" length="3.23" shape="795.88,1695.90 795.15,1696.42 794.29,1696.14 793.33,1695.07"/>
    </edge>
    <edge id=":157_0" function="internal">
        <lane id=":157_0_0" index="0" disallow="tram rail_urban rail rail_electric rail_fast ship" speed="13.89" length="11.20" shape="394.64,1332.72 393.23,1321.61"/>
    </edge>
    <edge id=":157_1" function="internal">
        <lane id=":157_1_0" index="0" disallow="tram rail_urban rail rail_electric rail_fast ship" speed="6.49" length="4.12" shape="399.50,1326.43 397.02,1326.41 395.51,1325.76"/>
    </edge>
    <edge id=":157_2" function="internal">
        <lane id=":157_2_0" index="0" disallow="tram rail_urban rail rail_electric rail_fast ship" speed="6.49" length="4.91" shape="395.51,1325.76 395.15,1325.60 393.89,1324.00 393.23,1321.61"/>
    </edge>
    <edge id=":158_0" function="internal">
        <lane id=":158_0_0" index="0" disallow="tram rail_urban rail rail_electric rail_fast ship" speed="13.89" length="0.10" shape="200.15,1454.86 200.15,1454.86"/>
    </edge>
    <edge id=":16_0" function="internal">
        <lane id=":16_0_0" index="0" disallow="tram rail_urban rail rail_electric rail_fast ship" speed="13.89" length="0.10" shape="2284.64,1399.03 2284.54,1399.04"/>
    </edge>
    <edge id=":160_0" function="internal">
        <lane id=":160_0_0" index="0" disallow="tram rail_urban rail rail_electric rail_fast ship" speed="13.89" length="14.08" shape="849.24,1160.56 835.30,1162.58"/>
    </edge>
    <edge id=":160_1" function="internal">
        <lane id=":160_1_0" index="0" disallow="tram rail_urban rail rail_electric rail_fast ship" speed="8.01" length="13.93" shape="849.24,1160.56 845.43,1160.53 842.52,1159.30 840.50,1156.87 839.37,1153.24"/>
    </edge>
    <edge id=":160_2" function="internal">
        <lane id=":160_2_0" index="0" disallow="tram rail_urban rail rail_electric rail_fast ship" speed="3.65" length="4.67" shape="849.24,1160.56 847.94,1159.93 847.44,1159.19 847.73,1158.34 848.81,1157.39"/>
    </edge>
    <edge id=":160_3" function="internal">
        <lane id=":160_3_0" index="0" disallow="tram rail_urban rail rail_electric rail_fast ship" speed="6.51" length="8.86" shape="842.53,1152.73 843.25,1155.04 844.54,1156.59 846.39,1157.37 848.81,1157.39"/>
    </edge>
    <edge id=":160_4" function="internal">
        <lane id=":160_4_0" index="0" disallow="tram rail_urban rail rail_electric rail_fast ship" speed="7.92" length="13.95" shape="842.53,1152.73 842.60,1156.54 841.41,1159.45 838.98,1161.46 835.30,1162.58"/>
    </edge>
    <edge id=":160_5" function="internal">
        <lane id=":160_5_0" index="0" disallow="tram rail_urban rail rail_electric rail_fast ship" speed="3.65" length="4.67" shape="842.53,1152.73 841.94,1154.04 841.21,1154.56 840.36,1154.30 839.37,1153.24"/>
    </edge>
    <edge id=":161_0" function="internal">
        <lane id=":161_0_0" index="0" disallow="tram rail_urban rail rail_electric rail_fast ship" speed="13.89" length="11.26" shape="726.81,1244.62 725.07,1233.49"/>
    </edge>
    <edge id=":161_1" function="internal">
        <lane id=":161_1_0" index="0" disallow="tram rail_urban rail rail_electric rail_fast ship" speed="3.65" length="1.44" shape="726.81,1244.62 727.41,1243.31"/>
    </edge>
    <edge id=":161_6" function="internal">
        <lane id=":161_6_0" index="0" disallow="tram rail_urban rail rail_electric rail_fast ship" speed="3.65" length="3.23" shape="727.41,1243.31 728.14,1242.78 728.99,1243.05 729.97,1244.11"/>
    </edge>
    <edge id=":161_2" function="internal">
        <lane id=":161_2_0" index="0" disallow="tram rail_urban rail rail_electric rail_fast ship" speed="6.44" length="9.03" shape="734.68,1237.81 732.28,1238.47 730.70,1239.74 729.93,1241.62 729.97,1244.11"/>
    </edge>
    <edge id=":161_3" function="internal">
        <lane id=":161_3_0" index="0" disallow="tram rail_urban rail rail_electric rail_fast ship" speed="7.39" length="11.78" shape="734.68,1237.81 730.78,1237.96 727.88,1237.29 725.97,1235.80 725.07,1233.49"/>
    </edge>
    <edge id=":161_4" function="internal">
        <lane id=":161_4_0" index="0" disallow="tram rail_urban rail rail_electric rail_fast ship" speed="13.89" length="11.22" shape="728.24,1233.02 729.97,1244.11"/>
    </edge>
    <edge id=":161_5" function="internal">
        <lane id=":161_5_0" index="0" disallow="tram rail_urban rail rail_electric rail_fast ship" speed="3.65" length="1.44" shape="728.24,1233.02 727.62,1234.33"/>
    </edge>
    <edge id=":161_7" function="internal">
        <lane id=":161_7_0" index="0" disallow="tram rail_urban rail rail_electric rail_fast ship" speed="3.65" length="3.23" shape="727.62,1234.33 726.89,1234.84 726.04,1234.56 725.07,1233.49"/>
    </edge>
    <edge id=":162_0" function="internal">
        <lane id=":162_0_0" index="0" disallow="tram rail_urban rail rail_electric rail_fast ship" speed="6.46" length="9.05" shape="677.14,1723.11 676.44,1720.70 675.16,1719.11 673.28,1718.34 670.81,1718.39"/>
    </edge>
    <edge id=":162_1" function="internal">
        <lane id=":162_1_0" index="0" disallow="tram rail_urban rail rail_electric rail_fast ship" speed="22.22" length="11.21" shape="677.14,1723.11 675.55,1712.00"/>
    </edge>
    <edge id=":162_2" function="internal">
        <lane id=":162_2_0" index="0" disallow="tram rail_urban rail rail_electric rail_fast ship" speed="3.65" length="1.44" shape="677.14,1723.11 677.76,1721.81"/>
    </edge>
    <edge id=":162_9" function="internal">
        <lane id=":162_9_0" index="0" disallow="tram rail_urban rail rail_electric rail_fast ship" speed="3.65" length="3.23" shape="677.76,1721.81 678.50,1721.30 679.35,1721.59 680.30,1722.66"/>
    </edge>
    <edge id=":162_3" function="internal">
        <lane id=":162_3_0" index="0" disallow="tram rail_urban rail rail_electric rail_fast ship" speed="6.50" length="9.02" shape="685.10,1716.37 682.71,1717.05 681.12,1718.33 680.31,1720.20 680.30,1722.66"/>
    </edge>
    <edge id=":162_4" function="internal">
        <lane id=":162_4_0" index="0" disallow="tram rail_urban rail rail_electric rail_fast ship" speed="13.89" length="14.43" shape="685.10,1716.37 670.81,1718.39"/>
    </edge>
    <edge id=":162_5" function="internal">
        <lane id=":162_5_0" index="0" disallow="tram rail_urban rail rail_electric rail_fast ship" speed="7.37" length="11.78" shape="685.10,1716.37 681.23,1716.55 678.35,1715.88 676.46,1714.37 675.55,1712.00"/>
    </edge>
    <edge id=":162_6" function="internal">
        <lane id=":162_6_0" index="0" disallow="tram rail_urban rail rail_electric rail_fast ship" speed="22.22" length="11.24" shape="678.72,1711.54 680.30,1722.66"/>
    </edge>
    <edge id=":162_7" function="internal">
        <lane id=":162_7_0" index="0" disallow="tram rail_urban rail rail_electric rail_fast ship" speed="7.37" length="2.46" shape="678.72,1711.54 678.52,1713.99"/>
    </edge>
    <edge id=":162_8" function="internal">
        <lane id=":162_8_0" index="0" disallow="tram rail_urban rail rail_electric rail_fast ship" speed="3.65" length="1.44" shape="678.72,1711.54 678.10,1712.84"/>
    </edge>
    <edge id=":162_10" function="internal">
        <lane id=":162_10_0" index="0" disallow="tram rail_urban rail rail_electric rail_fast ship" speed="7.37" length="9.25" shape="678.52,1713.99 677.14,1715.95 674.57,1717.42 670.81,1718.39"/>
    </edge>
    <edge id=":162_11" function="internal">
        <lane id=":162_11_0" index="0" disallow="tram rail_urban rail rail_electric rail_fast ship" speed="3.65" length="3.23" shape="678.10,1712.84 677.37,1713.35 676.52,1713.07 675.55,1712.00"/>
    </edge>
    <edge id=":163_0" function="internal">
        <lane id=":163_0_0" index="0" disallow="tram rail_urban rail rail_electric rail_fast ship" speed="6.51" length="9.00" shape="580.55,1307.40 579.86,1305.04 578.58,1303.46 576.70,1302.67 574.23,1302.65"/>
    </edge>
    <edge id=":163_1" function="internal">
        <lane id=":163_1_0" index="0" disallow="tram rail_urban rail rail_electric rail_fast ship" speed="13.89" length="11.14" shape="580.55,1307.40 578.97,1296.37"/>
    </edge>
    <edge id=":163_2" function="internal">
        <lane id=":163_2_0" index="0" disallow="tram rail_urban rail rail_electric rail_fast ship" speed="3.65" length="1.44" shape="580.55,1307.40 581.17,1306.10"/>
    </edge>
    <edge id=":163_6" function="internal">
        <lane id=":163_6_0" index="0" disallow="tram rail_urban rail rail_electric rail_fast ship" speed="3.65" length="3.23" shape="581.17,1306.10 581.91,1305.59 582.76,1305.88 583.72,1306.95"/>
    </edge>
    <edge id=":163_3" function="internal">
        <lane id=":163_3_0" index="0" disallow="tram rail_urban rail rail_electric rail_fast ship" speed="13.89" length="11.14" shape="582.14,1295.92 583.72,1306.95"/>
    </edge>
    <edge id=":163_4" function="internal">
        <lane id=":163_4_0" index="0" disallow="tram rail_urban rail rail_electric rail_fast ship" speed="7.30" length="2.51" shape="582.14,1295.92 581.94,1298.42"/>
    </edge>
    <edge id=":163_5" function="internal">
        <lane id=":163_5_0" index="0" disallow="tram rail_urban rail rail_electric rail_fast ship" speed="3.65" length="1.44" shape="582.14,1295.92 581.52,1297.22"/>
    </edge>
    <edge id=":163_7" function="internal">
        <lane id=":163_7_0" index="0" disallow="tram rail_urban rail rail_electric rail_fast ship" speed="7.30" length="9.18" shape="581.94,1298.42 580.56,1300.38 577.99,1301.79 574.23,1302.65"/>
    </edge>
    <edge id=":163_8" function="internal">
        <lane id=":163_8_0" index="0" disallow="tram rail_urban rail rail_electric rail_fast ship" speed="3.65" length="3.23" shape="581.52,1297.22 580.78,1297.73 579.93,1297.45 578.97,1296.37"/>
    </edge>
    <edge id=":164_0" function="internal">