<?xml version='1.0' encoding='utf-8'?>
<routes>
	<vType accel="3.0" decel="6.0" id="CarDefault" length="5.0" minGap="2.5" maxSpeed="50.0" sigma="0.5" />
	<route id="sr1065" edges="965 750 751 964 741 742 430 210 12 11 341 18 17 16 15 14 127 126 125 357 356 355 354 314 313 679 680 666 664 153 398" fromJunction="358" toJunction="77" />
	<route id="sr1066" edges="897 332 331 428 427 426 425 424 423 400 399 404 403 124 123 10 9 232 333 988 209 831 832" fromJunction="315" toJunction="241" />
	<route id="sr1067" edges="280 65 945 946 943 944 811 812 795 796 334 342 587 969 341 10 9 232 333 988 209 831 832" fromJunction="316" toJunction="241" />
	<route id="sr1068" edges="288 287 739 415 233 886 774 502 627 628 967 968 957 958 511 512 513 890 891 766 1018 1019 1020 1021 1022 898 961 1017 960 706" fromJunction="241" toJunction="248" />
	<vehicle id="v0" depart="0.0" route="sr1065" type="CarDefault" departLane="random" />
	<vehicle id="v80" depart="0.0" route="sr1067" type="CarDefault" departLane="random" />
	<vehicle id="v1" depart="3.33" route="sr1065" type="CarDefault" departLane="random" />
	<vehicle id="v81" depart="3.75" route="sr1067" type="CarDefault" departLane="random" />
	<vehicle id="v114" depart="5" route="sr1068" type="CarDefault" departLane="random" />
	<vehicle id="v2" depart="6.67" route="sr1065" type="CarDefault" departLane="random" />
	<vehicle id="v40" depart="7" route="sr1066" type="CarDefault" departLane="random" />
	<vehicle id="v82" depart="7.5" route="sr1067" type="CarDefault" departLane="random" />
	<vehicle id="v37" depart="8" route="sr1066" type="CarDefault" departLane="random" />
	<vehicle id="v43" depart="8" route="sr1066" type="CarDefault" departLane="random" />
	<vehicle id="v38" depart="9" route="sr1066" type="CarDefault" departLane="random" />
	<vehicle id="v3" depart="10.0" route="sr1065" type="CarDefault" departLane="random" />
	<vehicle id="v83" depart="11.25" route="sr1067" type="CarDefault" departLane="random" />
	<vehicle id="v39" depart="12" route="sr1066" type="CarDefault" departLane="random" />
	<vehicle id="v113" depart="12" route="sr1068" type="CarDefault" departLane="random" />
	<vehicle id="v41" depart="13" route="sr1066" type="CarDefault" departLane="random" />
	<vehicle id="v4" depart="13.33" route="sr1065" type="CarDefault" departLane="random" />
	<vehicle id="v84" depart="15.0" route="sr1067" type="CarDefault" departLane="random" />
	<vehicle id="v5" depart="16.67" route="sr1065" type="CarDefault" departLane="random" />
	<vehicle id="v115" depart="18" route="sr1068" type="CarDefault" departLane="random" />
	<vehicle id="v85" depart="18.75" route="sr1067" type="CarDefault" departLane="random" />
	<vehicle id="v42" depart="19" route="sr1066" type="CarDefault" departLane="random" />
	<vehicle id="v6" depart="20.0" route="sr1065" type="CarDefault" departLane="random" />
	<vehicle id="v47" depart="20" route="sr1066" type="CarDefault" departLane="random" />
	<vehicle id="v49" depart="22" route="sr1066" type="CarDefault" departLane="random" />
	<vehicle id="v118" depart="22" route="sr1068" type="CarDefault" departLane="random" />
	<vehicle id="v86" depart="22.5" route="sr1067" type="CarDefault" departLane="random" />
	<vehicle id="v7" depart="23.33" route="sr1065" type="CarDefault" departLane="random" />
	<vehicle id="v44" depart="26" route="sr1066" type="CarDefault" departLane="random" />
	<vehicle id="v46" depart="26" route="sr1066" type="CarDefault" departLane="random" />
	<vehicle id="v48" depart="26" route="sr1066" type="CarDefault" departLane="random" />
	<vehicle id="v87" depart="26.25" route="sr1067" type="CarDefault" departLane="random" />
	<vehicle id="v8" depart="26.67" route="sr1065" type="CarDefault" departLane="random" />
	<vehicle id="v117" depart="27" route="sr1068" type="CarDefault" departLane="random" />
	<vehicle id="v9" depart="30.0" route="sr1065" type="CarDefault" departLane="random" />
	<vehicle id="v88" depart="30.0" route="sr1067" type="CarDefault" departLane="random" />
	<vehicle id="v10" depart="33.33" route="sr1065" type="CarDefault" departLane="random" />
	<vehicle id="v89" depart="33.75" route="sr1067" type="CarDefault" departLane="random" />
	<vehicle id="v11" depart="36.67" route="sr1065" type="CarDefault" departLane="random" />
	<vehicle id="v90" depart="37.5" route="sr1067" type="CarDefault" departLane="random" />
	<vehicle id="v116" depart="38" route="sr1068" type="CarDefault" departLane="random" />
	<vehicle id="v45" depart="39" route="sr1066" type="CarDefault" departLane="random" />
	<vehicle id="v12" depart="40.0" route="sr1065" type="CarDefault" departLane="random" />
	<vehicle id="v91" depart="41.25" route="sr1067" type="CarDefault" departLane="random" />
	<vehicle id="v13" depart="43.33" route="sr1065" type="CarDefault" departLane="random" />
	<vehicle id="v57" depart="44" route="sr1066" type="CarDefault" departLane="random" />
	<vehicle id="v92" depart="45.0" route="sr1067" type="CarDefault" departLane="random" />
	<vehicle id="v14" depart="46.67" route="sr1065" type="CarDefault" departLane="random" />
	<vehicle id="v50" depart="47" route="sr1066" type="CarDefault" departLane="random" />
	<vehicle id="v54" depart="47" route="sr1066" type="CarDefault" departLane="random" />
	<vehicle id="v52" depart="48" route="sr1066" type="CarDefault" departLane="random" />
	<vehicle id="v93" depart="48.75" route="sr1067" type="CarDefault" departLane="random" />
	<vehicle id="v51" depart="49" route="sr1066" type="CarDefault" departLane="random" />
	<vehicle id="v119" depart="49" route="sr1068" type="CarDefault" departLane="random" />
	<vehicle id="v15" depart="50.0" route="sr1065" type="CarDefault" departLane="random" />
	<vehicle id="v53" depart="52" route="sr1066" type="CarDefault" departLane="random" />
	<vehicle id="v94" depart="52.5" route="sr1067" type="CarDefault" departLane="random" />
	<vehicle id="v16" depart="53.33" route="sr1065" type="CarDefault" departLane="random" />
	<vehicle id="v95" depart="56.25" route="sr1067" type="CarDefault" departLane="random" />
	<vehicle id="v17" depart="56.67" route="sr1065" type="CarDefault" departLane="random" />
	<vehicle id="v120" depart="57" route="sr1068" type="CarDefault" departLane="random" />
	<vehicle id="v55" depart="58" route="sr1066" type="CarDefault" departLane="random" />
	<vehicle id="v56" depart="58" route="sr1066" type="CarDefault" departLane="random" />
	<vehicle id="v121" depart="58" route="sr1068" type="CarDefault" departLane="random" />
	<vehicle id="v18" depart="60.0" route="sr1065" type="CarDefault" departLane="random" />
	<vehicle id="v96" depart="60.0" route="sr1067" type="CarDefault" departLane="random" />
	<vehicle id="v124" depart="61" route="sr1068" type="CarDefault" departLane="random" />
	<vehicle id="v19" depart="63.33" route="sr1065" type="CarDefault" departLane="random" />
	<vehicle id="v97" depart="63.75" route="sr1067" type="CarDefault" departLane="random" />
	<vehicle id="v20" depart="66.67" route="sr1065" type="CarDefault" departLane="random" />
	<vehicle id="v64" depart="67" route="sr1066" type="CarDefault" departLane="random" />
	<vehicle id="v98" depart="67.5" route="sr1067" type="CarDefault" departLane="random" />
	<vehicle id="v59" depart="68" route="sr1066" type="CarDefault" departLane="random" />
	<vehicle id="v21" depart="70.0" route="sr1065" type="CarDefault" departLane="random" />
	<vehicle id="v122" depart="70" route="sr1068" type="CarDefault" departLane="random" />
	<vehicle id="v99" depart="71.25" route="sr1067" type="CarDefault" departLane="random" />
	<vehicle id="v58" depart="73" route="sr1066" type="CarDefault" departLane="random" />
	<vehicle id="v22" depart="73.33" route="sr1065" type="CarDefault" departLane="random" />
	<vehicle id="v100" depart="75.0" route="sr1067" type="CarDefault" departLane="random" />
	<vehicle id="v63" depart="76" route="sr1066" type="CarDefault" departLane="random" />
	<vehicle id="v23" depart="76.67" route="sr1065" type="CarDefault" departLane="random" />
	<vehicle id="v60" depart="77" route="sr1066" type="CarDefault" departLane="random" />
	<vehicle id="v61" depart="77" route="sr1066" type="CarDefault" departLane="random" />
	<vehicle id="v123" depart="78" route="sr1068" type="CarDefault" departLane="random" />
	<vehicle id="v101" depart="78.75" route="sr1067" type="CarDefault" departLane="random" />
	<vehicle id="v62" depart="79" route="sr1066" type="CarDefault" departLane="random" />
	<vehicle id="v24" depart="80.0" route="sr1065" type="CarDefault" departLane="random" />
	<vehicle id="v71" depart="81" route="sr1066" type="CarDefault" departLane="random" />
	<vehicle id="v67" depart="82" route="sr1066" type="CarDefault" departLane="random" />
	<vehicle id="v102" depart="82.5" route="sr1067" type="CarDefault" departLane="random" />
	<vehicle id="v25" depart="83.33" route="sr1065" type="CarDefault" departLane="random" />
	<vehicle id="v70" depart="84" route="sr1066" type="CarDefault" departLane="random" />
	<vehicle id="v125" depart="85" route="sr1068" type="CarDefault" departLane="random" />
	<vehicle id="v103" depart="86.25" route="sr1067" type="CarDefault" departLane="random" />
	<vehicle id="v26" depart="86.67" route="sr1065" type="CarDefault" departLane="random" />
	<vehicle id="v65" depart="87" route="sr1066" type="CarDefault" departLane="random" />
	<vehicle id="v127" depart="88" route="sr1068" type="CarDefault" departLane="random" />
	<vehicle id="v27" depart="90.0" route="sr1065" type="CarDefault" departLane="random" />
	<vehicle id="v66" depart="90" route="sr1066" type="CarDefault" departLane="random" />
	<vehicle id="v104" depart="90.0" route="sr1067" type="CarDefault" departLane="random" />
	<vehicle id="v28" depart="93.33" route="sr1065" type="CarDefault" departLane="random" />
	<vehicle id="v105" depart="93.75" route="sr1067" type="CarDefault" departLane="random" />
	<vehicle id="v68" depart="94" route="sr1066" type="CarDefault" departLane="random" />
	<vehicle id="v126" depart="96" route="sr1068" type="CarDefault" departLane="random" />
	<vehicle id="v29" depart="96.67" route="sr1065" type="CarDefault" departLane="random" />
	<vehicle id="v106" depart="97.5" route="sr1067" type="CarDefault" departLane="random" />
	<vehicle id="v69" depart="99" route="sr1066" type="CarDefault" departLane="random" />
	<vehicle id="v30" depart="100.0" route="sr1065" type="CarDefault" departLane="random" />
	<vehicle id="v73" depart="100" route="sr1066" type="CarDefault" departLane="random" />
	<vehicle id="v107" depart="101.25" route="sr1067" type="CarDefault" departLane="random" />
	<vehicle id="v76" depart="102" route="sr1066" type="CarDefault" departLane="random" />
	<vehicle id="v31" depart="103.33" route="sr1065" type="CarDefault" departLane="random" />
	<vehicle id="v129" depart="104" route="sr1068" type="CarDefault" departLane="random" />
	<vehicle id="v108" depart="105.0" route="sr1067" type="CarDefault" departLane="random" />
	<vehicle id="v32" depart="106.67" route="sr1065" type="CarDefault" departLane="random" />
	<vehicle id="v77" depart="107" route="sr1066" type="CarDefault" departLane="random" />
	<vehicle id="v74" depart="108" route="sr1066" type="CarDefault" departLane="random" />
	<vehicle id="v75" depart="108" route="sr1066" type="CarDefault" departLane="random" />
	<vehicle id="v109" depart="108.75" route="sr1067" type="CarDefault" departLane="random" />
	<vehicle id="v33" depart="110.0" route="sr1065" type="CarDefault" departLane="random" />
	<vehicle id="v79" depart="111" route="sr1066" type="CarDefault" departLane="random" />
	<vehicle id="v110" depart="112.5" route="sr1067" type="CarDefault" departLane="random" />
	<vehicle id="v78" depart="113" route="sr1066" type="CarDefault" departLane="random" />
	<vehicle id="v34" depart="113.33" route="sr1065" type="CarDefault" departLane="random" />
	<vehicle id="v72" depart="115" route="sr1066" type="CarDefault" departLane="random" />
	<vehicle id="v111" depart="116.25" route="sr1067" type="CarDefault" departLane="random" />
	<vehicle id="v35" depart="116.67" route="sr1065" type="CarDefault" departLane="random" />
	<vehicle id="v128" depart="117" route="sr1068" type="CarDefault" departLane="random" />
	<vehicle id="v130" depart="117" route="sr1068" type="CarDefault" departLane="random" />
	<vehicle id="v36" depart="120.0" route="sr1065" type="CarDefault" departLane="random" />
	<vehicle id="v112" depart="120.0" route="sr1067" type="CarDefault" departLane="random" />
</routes>