<?xml version="1.0" encoding="UTF-8"?>

<!-- generated on 2022-06-16 07:48:23 by Eclipse SUMO sumo Version 1.9.2
<configuration xmlns:xsi="http://www.w3.org/2001/XMLSchema-instance" xsi:noNamespaceSchemaLocation="http://sumo.dlr.de/xsd/sumoConfiguration.xsd">

    <input>
        <net-file value="\\wsl$\Ubuntu\home\svadlmat\UTC\Project/Maps/sumo/Chodov.net.xml"/>
        <route-files value="\\wsl$\Ubuntu\home\svadlmat\UTC\Project/Traci/scenarios/test3/routes.ruo.xml"/>
    </input>

    <output>
        <tripinfo-output value="tripinfo.xml"/>
        <statistic-output value="result.txt"/>
    </output>

    <time>
        <begin value="0"/>
        <end value="300000"/>
    </time>

    <processing>
        <route-steps value="0"/>
        <time-to-teleport value="-1"/>
    </processing>

    <report>
        <verbose value="true"/>
        <duration-log.statistics value="true"/>
    </report>

    <traci_server>
        <remote-port value="50223"/>
    </traci_server>

</configuration>
-->

<statistics xmlns:xsi="http://www.w3.org/2001/XMLSchema-instance" xsi:noNamespaceSchemaLocation="http://sumo.dlr.de/xsd/statistic_file.xsd">
    <vehicles loaded="1238" inserted="1238" running="0" waiting="0"/>
    <teleports total="0" jam="0" yield="0" wrongLane="0"/>
    <safety collisions="0" emergencyStops="0"/>
    <persons loaded="0" running="0" jammed="0"/>
    <vehicleTripStatistics routeLength="892.19" speed="7.32" duration="260.37" waitingTime="128.29" timeLoss="193.08" departDelay="1255.66" departDelayWaiting="-1.00" totalTravelTime="322335.00" totalDepartDelay="1554507.00"/>
    <pedestrianStatistics number="0" routeLength="0.00" duration="0.00" timeLoss="0.00"/>
    <rideStatistics number="0"/>
    <transportStatistics number="0"/>
</statistics>
