<?xml version='1.0' encoding='utf-8'?>
<routes>
	<vType accel="3.0" decel="6.0" id="CarDefault" length="5.0" minGap="2.5" maxSpeed="50.0" sigma="0.5" />
	<route id="sr1064" edges="288 287 739 415 233 886 774 502 627 628 967 968 957 958 511 512 513 890 891 766 1018 1019 1020 1021 1022 898 961 1017 960 706" fromJunction="241" toJunction="248" />
	<route id="sr1065" edges="897 332 331 428 427 426 425 424 423 400 399 404 403 124 123 10 9 232 333 988 209 831 832" fromJunction="315" toJunction="241" />
	<route id="sr1066" edges="794 919 920 921 922 712 487 482 483 710 709 269 268 267 107 92 375 885 346" fromJunction="292" toJunction="315" />
	<vehicle id="v32" depart="0" route="sr1065" type="CarDefault" departLane="random" />
	<vehicle id="v83" depart="0.0" route="sr1066" type="CarDefault" departLane="random" />
	<vehicle id="v6" depart="1" route="sr1064" type="CarDefault" departLane="random" />
	<vehicle id="v7" depart="1" route="sr1064" type="CarDefault" departLane="random" />
	<vehicle id="v36" depart="1" route="sr1065" type="CarDefault" departLane="random" />
	<vehicle id="v0" depart="2" route="sr1064" type="CarDefault" departLane="random" />
	<vehicle id="v4" depart="3" route="sr1064" type="CarDefault" departLane="random" />
	<vehicle id="v5" depart="5" route="sr1064" type="CarDefault" departLane="random" />
	<vehicle id="v3" depart="9" route="sr1064" type="CarDefault" departLane="random" />
	<vehicle id="v84" depart="10.0" route="sr1066" type="CarDefault" departLane="random" />
	<vehicle id="v29" depart="13" route="sr1065" type="CarDefault" departLane="random" />
	<vehicle id="v1" depart="14" route="sr1064" type="CarDefault" departLane="random" />
	<vehicle id="v2" depart="15" route="sr1064" type="CarDefault" departLane="random" />
	<vehicle id="v37" depart="15" route="sr1065" type="CarDefault" departLane="random" />
	<vehicle id="v33" depart="16" route="sr1065" type="CarDefault" departLane="random" />
	<vehicle id="v35" depart="16" route="sr1065" type="CarDefault" departLane="random" />
	<vehicle id="v31" depart="18" route="sr1065" type="CarDefault" departLane="random" />
	<vehicle id="v30" depart="19" route="sr1065" type="CarDefault" departLane="random" />
	<vehicle id="v34" depart="19" route="sr1065" type="CarDefault" departLane="random" />
	<vehicle id="v85" depart="20.0" route="sr1066" type="CarDefault" departLane="random" />
	<vehicle id="v40" depart="25" route="sr1065" type="CarDefault" departLane="random" />
	<vehicle id="v11" depart="29" route="sr1064" type="CarDefault" departLane="random" />
	<vehicle id="v86" depart="30.0" route="sr1066" type="CarDefault" departLane="random" />
	<vehicle id="v88" depart="30" route="sr1066" type="CarDefault" departLane="random" />
	<vehicle id="v8" depart="31" route="sr1064" type="CarDefault" departLane="random" />
	<vehicle id="v10" depart="32" route="sr1064" type="CarDefault" departLane="random" />
	<vehicle id="v9" depart="33" route="sr1064" type="CarDefault" departLane="random" />
	<vehicle id="v43" depart="34" route="sr1065" type="CarDefault" departLane="random" />
	<vehicle id="v38" depart="35" route="sr1065" type="CarDefault" departLane="random" />
	<vehicle id="v44" depart="35" route="sr1065" type="CarDefault" departLane="random" />
	<vehicle id="v39" depart="36" route="sr1065" type="CarDefault" departLane="random" />
	<vehicle id="v41" depart="37" route="sr1065" type="CarDefault" departLane="random" />
	<vehicle id="v42" depart="38" route="sr1065" type="CarDefault" departLane="random" />
	<vehicle id="v51" depart="40" route="sr1065" type="CarDefault" departLane="random" />
	<vehicle id="v87" depart="40.0" route="sr1066" type="CarDefault" departLane="random" />
	<vehicle id="v89" depart="40.0" route="sr1066" type="CarDefault" departLane="random" />
	<vehicle id="v12" depart="41" route="sr1064" type="CarDefault" departLane="random" />
	<vehicle id="v52" depart="43" route="sr1065" type="CarDefault" departLane="random" />
	<vehicle id="v53" depart="43" route="sr1065" type="CarDefault" departLane="random" />
	<vehicle id="v49" depart="44" route="sr1065" type="CarDefault" departLane="random" />
	<vehicle id="v48" depart="45" route="sr1065" type="CarDefault" departLane="random" />
	<vehicle id="v90" depart="45.71" route="sr1066" type="CarDefault" departLane="random" />
	<vehicle id="v15" depart="46" route="sr1064" type="CarDefault" departLane="random" />
	<vehicle id="v91" depart="51.43" route="sr1066" type="CarDefault" departLane="random" />
	<vehicle id="v14" depart="54" route="sr1064" type="CarDefault" departLane="random" />
	<vehicle id="v46" depart="54" route="sr1065" type="CarDefault" departLane="random" />
	<vehicle id="v47" depart="56" route="sr1065" type="CarDefault" departLane="random" />
	<vehicle id="v50" depart="57" route="sr1065" type="CarDefault" departLane="random" />
	<vehicle id="v92" depart="57.14" route="sr1066" type="CarDefault" departLane="random" />
	<vehicle id="v13" depart="58" route="sr1064" type="CarDefault" departLane="random" />
	<vehicle id="v16" depart="58" route="sr1064" type="CarDefault" departLane="random" />
	<vehicle id="v45" depart="58" route="sr1065" type="CarDefault" departLane="random" />
	<vehicle id="v54" depart="58" route="sr1065" type="CarDefault" departLane="random" />
	<vehicle id="v58" depart="60" route="sr1065" type="CarDefault" departLane="random" />
	<vehicle id="v22" depart="61" route="sr1064" type="CarDefault" departLane="random" />
	<vehicle id="v93" depart="62.86" route="sr1066" type="CarDefault" departLane="random" />
	<vehicle id="v21" depart="65" route="sr1064" type="CarDefault" departLane="random" />
	<vehicle id="v97" depart="66" route="sr1066" type="CarDefault" departLane="random" />
	<vehicle id="v17" depart="67" route="sr1064" type="CarDefault" departLane="random" />
	<vehicle id="v18" depart="67" route="sr1064" type="CarDefault" departLane="random" />
	<vehicle id="v20" depart="67" route="sr1064" type="CarDefault" departLane="random" />
	<vehicle id="v99" depart="67" route="sr1066" type="CarDefault" departLane="random" />
	<vehicle id="v55" depart="68" route="sr1065" type="CarDefault" departLane="random" />
	<vehicle id="v94" depart="68.57" route="sr1066" type="CarDefault" departLane="random" />
	<vehicle id="v60" depart="69" route="sr1065" type="CarDefault" departLane="random" />
	<vehicle id="v98" depart="69" route="sr1066" type="CarDefault" departLane="random" />
	<vehicle id="v59" depart="70" route="sr1065" type="CarDefault" departLane="random" />
	<vehicle id="v62" depart="70" route="sr1065" type="CarDefault" departLane="random" />
	<vehicle id="v56" depart="71" route="sr1065" type="CarDefault" departLane="random" />
	<vehicle id="v61" depart="71" route="sr1065" type="CarDefault" departLane="random" />
	<vehicle id="v57" depart="73" route="sr1065" type="CarDefault" departLane="random" />
	<vehicle id="v19" depart="74" route="sr1064" type="CarDefault" departLane="random" />
	<vehicle id="v95" depart="74.29" route="sr1066" type="CarDefault" departLane="random" />
	<vehicle id="v70" depart="80" route="sr1065" type="CarDefault" departLane="random" />
	<vehicle id="v96" depart="80.0" route="sr1066" type="CarDefault" departLane="random" />
	<vehicle id="v100" depart="80.0" route="sr1066" type="CarDefault" departLane="random" />
	<vehicle id="v25" depart="82" route="sr1064" type="CarDefault" departLane="random" />
	<vehicle id="v23" depart="83" route="sr1064" type="CarDefault" departLane="random" />
	<vehicle id="v69" depart="83" route="sr1065" type="CarDefault" departLane="random" />
	<vehicle id="v101" depart="83.33" route="sr1066" type="CarDefault" departLane="random" />
	<vehicle id="v66" depart="84" route="sr1065" type="CarDefault" departLane="random" />
	<vehicle id="v24" depart="86" route="sr1064" type="CarDefault" departLane="random" />
	<vehicle id="v63" depart="86" route="sr1065" type="CarDefault" departLane="random" />
	<vehicle id="v102" depart="86.67" route="sr1066" type="CarDefault" departLane="random" />
	<vehicle id="v71" depart="87" route="sr1065" type="CarDefault" departLane="random" />
	<vehicle id="v103" depart="90.0" route="sr1066" type="CarDefault" departLane="random" />
	<vehicle id="v64" depart="92" route="sr1065" type="CarDefault" departLane="random" />
	<vehicle id="v68" depart="92" route="sr1065" type="CarDefault" departLane="random" />
	<vehicle id="v67" depart="93" route="sr1065" type="CarDefault" departLane="random" />
	<vehicle id="v104" depart="93.33" route="sr1066" type="CarDefault" departLane="random" />
	<vehicle id="v105" depart="96.67" route="sr1066" type="CarDefault" departLane="random" />
	<vehicle id="v65" depart="98" route="sr1065" type="CarDefault" departLane="random" />
	<vehicle id="v106" depart="100.0" route="sr1066" type="CarDefault" departLane="random" />
	<vehicle id="v28" depart="101" route="sr1064" type="CarDefault" departLane="random" />
	<vehicle id="v72" depart="101" route="sr1065" type="CarDefault" departLane="random" />
	<vehicle id="v74" depart="101" route="sr1065" type="CarDefault" departLane="random" />
	<vehicle id="v113" depart="101" route="sr1066" type="CarDefault" departLane="random" />
	<vehicle id="v81" depart="103" route="sr1065" type="CarDefault" departLane="random" />
	<vehicle id="v107" depart="103.33" route="sr1066" type="CarDefault" departLane="random" />
	<vehicle id="v27" depart="104" route="sr1064" type="CarDefault" departLane="random" />
	<vehicle id="v108" depart="106.67" route="sr1066" type="CarDefault" departLane="random" />
	<vehicle id="v75" depart="108" route="sr1065" type="CarDefault" departLane="random" />
	<vehicle id="v76" depart="108" route="sr1065" type="CarDefault" departLane="random" />
	<vehicle id="v80" depart="108" route="sr1065" type="CarDefault" departLane="random" />
	<vehicle id="v82" depart="109" route="sr1065" type="CarDefault" departLane="random" />
	<vehicle id="v116" depart="109" route="sr1066" type="CarDefault" departLane="random" />
	<vehicle id="v109" depart="110.0" route="sr1066" type="CarDefault" departLane="random" />
	<vehicle id="v73" depart="112" route="sr1065" type="CarDefault" departLane="random" />
	<vehicle id="v78" depart="112" route="sr1065" type="CarDefault" departLane="random" />
	<vehicle id="v115" depart="112" route="sr1066" type="CarDefault" departLane="random" />
	<vehicle id="v110" depart="113.33" route="sr1066" type="CarDefault" departLane="random" />
	<vehicle id="v114" depart="114" route="sr1066" type="CarDefault" departLane="random" />
	<vehicle id="v77" depart="115" route="sr1065" type="CarDefault" departLane="random" />
	<vehicle id="v79" depart="116" route="sr1065" type="CarDefault" departLane="random" />
	<vehicle id="v111" depart="116.67" route="sr1066" type="CarDefault" departLane="random" />
	<vehicle id="v26" depart="117" route="sr1064" type="CarDefault" departLane="random" />
	<vehicle id="v112" depart="120.0" route="sr1066" type="CarDefault" departLane="random" />
</routes>