<?xml version='1.0' encoding='utf-8'?>
<routes>
	<vType accel="3.0" decel="6.0" id="CarDefault" length="5.0" minGap="2.5" maxSpeed="50.0" sigma="0.5" />
	<route id="sr462" edges="62 129 61 6 5 161 162 361 163 164 38 134 116 115 114 113 112 74 73 72 71 70 69 68" fromJunction="154" toJunction="42" />
	<route id="sr461" edges="226 227 228 116 359 300 301 124 30 29 28 27 26 25 50" fromJunction="127" toJunction="11" />
	<route id="r3881" edges="226 227 228 116 359 300 210 268 269 270 257 258 26 25 50" fromJunction="127" toJunction="11" />
	<route id="r3880" edges="231 178 179 180 181 182 183 413 385 207 208 49 48 47" fromJunction="11" toJunction="127" />
	<route id="sr459" edges="279 280 281 282 283 284 285 402 403 404 405 406 454 206 18 17 91 16 15 139 140 141 431 255" fromJunction="42" toJunction="154" />
	<route id="r3882" edges="62 129 61 6 5 92 59 58 13 12 4 164 123 122 101 82 210 268 269 104 74 73 72 71 70 69 68" fromJunction="154" toJunction="42" />
	<route id="sr460" edges="231 178 179 180 181 182 183 413 82 209 208 49 48 47" fromJunction="11" toJunction="127" />
	<route id="r3879" edges="279 280 281 282 283 284 285 402 403 404 405 406 454 206 18 138 376 251 364 365 366 367 368 348 141 431 255" fromJunction="42" toJunction="154" />
	<vehicle id="v241" depart="0.0" route="r3880" type="CarDefault" departLane="random" />
	<vehicle id="v440" depart="0.0" route="r3881" type="CarDefault" departLane="random" />
	<vehicle id="v610" depart="0.0" route="r3882" type="CarDefault" departLane="random" />
	<vehicle id="v0" depart="2" route="r3879" type="CarDefault" departLane="random" />
	<vehicle id="v242" depart="3.03" route="r3880" type="CarDefault" departLane="random" />
	<vehicle id="v11" depart="4" route="r3879" type="CarDefault" departLane="random" />
	<vehicle id="v5" depart="5" route="r3879" type="CarDefault" departLane="random" />
	<vehicle id="v243" depart="6.06" route="r3880" type="CarDefault" departLane="random" />
	<vehicle id="v441" depart="7.41" route="r3881" type="CarDefault" departLane="random" />
	<vehicle id="v611" depart="7.41" route="r3882" type="CarDefault" departLane="random" />
	<vehicle id="v7" depart="8" route="r3879" type="CarDefault" departLane="random" />
	<vehicle id="v8" depart="8" route="r3879" type="CarDefault" departLane="random" />
	<vehicle id="v1" depart="9" route="r3879" type="CarDefault" departLane="random" />
	<vehicle id="v244" depart="9.09" route="r3880" type="CarDefault" departLane="random" />
	<vehicle id="v10" depart="12" route="r3879" type="CarDefault" departLane="random" />
	<vehicle id="v245" depart="12.12" route="r3880" type="CarDefault" departLane="random" />
	<vehicle id="v6" depart="14" route="r3879" type="CarDefault" departLane="random" />
	<vehicle id="v442" depart="14.81" route="r3881" type="CarDefault" departLane="random" />
	<vehicle id="v612" depart="14.81" route="r3882" type="CarDefault" departLane="random" />
	<vehicle id="v246" depart="15.15" route="r3880" type="CarDefault" departLane="random" />
	<vehicle id="v9" depart="17" route="r3879" type="CarDefault" departLane="random" />
	<vehicle id="v2" depart="18" route="r3879" type="CarDefault" departLane="random" />
	<vehicle id="v4" depart="18" route="r3879" type="CarDefault" departLane="random" />
	<vehicle id="v247" depart="18.18" route="r3880" type="CarDefault" departLane="random" />
	<vehicle id="v3" depart="19" route="r3879" type="CarDefault" departLane="random" />
	<vehicle id="v248" depart="21.21" route="r3880" type="CarDefault" departLane="random" />
	<vehicle id="v443" depart="22.22" route="r3881" type="CarDefault" departLane="random" />
	<vehicle id="v613" depart="22.22" route="r3882" type="CarDefault" departLane="random" />
	<vehicle id="v249" depart="24.24" route="r3880" type="CarDefault" departLane="random" />
	<vehicle id="v250" depart="27.27" route="r3880" type="CarDefault" departLane="random" />
	<vehicle id="v12" depart="29" route="r3879" type="CarDefault" departLane="random" />
	<vehicle id="v444" depart="29.63" route="r3881" type="CarDefault" departLane="random" />
	<vehicle id="v614" depart="29.63" route="r3882" type="CarDefault" departLane="random" />
	<vehicle id="v251" depart="30.3" route="r3880" type="CarDefault" departLane="random" />
	<vehicle id="v15" depart="32" route="r3879" type="CarDefault" departLane="random" />
	<vehicle id="v252" depart="33.33" route="r3880" type="CarDefault" departLane="random" />
	<vehicle id="v13" depart="34" route="r3879" type="CarDefault" departLane="random" />
	<vehicle id="v253" depart="36.36" route="r3880" type="CarDefault" departLane="random" />
	<vehicle id="v14" depart="37" route="r3879" type="CarDefault" departLane="random" />
	<vehicle id="v445" depart="37.04" route="r3881" type="CarDefault" departLane="random" />
	<vehicle id="v615" depart="37.04" route="r3882" type="CarDefault" departLane="random" />
	<vehicle id="v16" depart="39" route="r3879" type="CarDefault" departLane="random" />
	<vehicle id="v254" depart="39.39" route="r3880" type="CarDefault" departLane="random" />
	<vehicle id="v20" depart="41" route="r3879" type="CarDefault" departLane="random" />
	<vehicle id="v19" depart="42" route="r3879" type="CarDefault" departLane="random" />
	<vehicle id="v255" depart="42.42" route="r3880" type="CarDefault" departLane="random" />
	<vehicle id="v22" depart="44" route="r3879" type="CarDefault" departLane="random" />
	<vehicle id="v446" depart="44.44" route="r3881" type="CarDefault" departLane="random" />
	<vehicle id="v616" depart="44.44" route="r3882" type="CarDefault" departLane="random" />
	<vehicle id="v256" depart="45.45" route="r3880" type="CarDefault" departLane="random" />
	<vehicle id="v257" depart="48.48" route="r3880" type="CarDefault" departLane="random" />
	<vehicle id="v18" depart="50" route="r3879" type="CarDefault" departLane="random" />
	<vehicle id="v21" depart="50" route="r3879" type="CarDefault" departLane="random" />
	<vehicle id="v258" depart="51.52" route="r3880" type="CarDefault" departLane="random" />
	<vehicle id="v447" depart="51.85" route="r3881" type="CarDefault" departLane="random" />
	<vehicle id="v617" depart="51.85" route="r3882" type="CarDefault" departLane="random" />
	<vehicle id="v24" depart="54" route="r3879" type="CarDefault" departLane="random" />
	<vehicle id="v259" depart="54.55" route="r3880" type="CarDefault" departLane="random" />
	<vehicle id="v17" depart="56" route="r3879" type="CarDefault" departLane="random" />
	<vehicle id="v23" depart="56" route="r3879" type="CarDefault" departLane="random" />
	<vehicle id="v260" depart="57.58" route="r3880" type="CarDefault" departLane="random" />
	<vehicle id="v448" depart="59.26" route="r3881" type="CarDefault" departLane="random" />
	<vehicle id="v618" depart="59.26" route="r3882" type="CarDefault" departLane="random" />
	<vehicle id="v261" depart="60.61" route="r3880" type="CarDefault" departLane="random" />
	<vehicle id="v262" depart="63.64" route="r3880" type="CarDefault" departLane="random" />
	<vehicle id="v34" depart="65" route="r3879" type="CarDefault" departLane="random" />
	<vehicle id="v263" depart="66.67" route="r3880" type="CarDefault" departLane="random" />
	<vehicle id="v449" depart="66.67" route="r3881" type="CarDefault" departLane="random" />
	<vehicle id="v619" depart="66.67" route="r3882" type="CarDefault" departLane="random" />
	<vehicle id="v25" depart="69" route="r3879" type="CarDefault" departLane="random" />
	<vehicle id="v29" depart="69" route="r3879" type="CarDefault" departLane="random" />
	<vehicle id="v264" depart="69.7" route="r3880" type="CarDefault" departLane="random" />
	<vehicle id="v27" depart="72" route="r3879" type="CarDefault" departLane="random" />
	<vehicle id="v30" depart="72" route="r3879" type="CarDefault" departLane="random" />
	<vehicle id="v265" depart="72.73" route="r3880" type="CarDefault" departLane="random" />
	<vehicle id="v32" depart="74" route="r3879" type="CarDefault" departLane="random" />
	<vehicle id="v450" depart="74.07" route="r3881" type="CarDefault" departLane="random" />
	<vehicle id="v620" depart="74.07" route="r3882" type="CarDefault" departLane="random" />
	<vehicle id="v31" depart="75" route="r3879" type="CarDefault" departLane="random" />
	<vehicle id="v33" depart="75" route="r3879" type="CarDefault" departLane="random" />
	<vehicle id="v266" depart="75.76" route="r3880" type="CarDefault" departLane="random" />
	<vehicle id="v28" depart="76" route="r3879" type="CarDefault" departLane="random" />
	<vehicle id="v267" depart="78.79" route="r3880" type="CarDefault" departLane="random" />
	<vehicle id="v26" depart="79" route="r3879" type="CarDefault" departLane="random" />
	<vehicle id="v35" depart="79" route="r3879" type="CarDefault" departLane="random" />
	<vehicle id="v451" depart="81.48" route="r3881" type="CarDefault" departLane="random" />
	<vehicle id="v621" depart="81.48" route="r3882" type="CarDefault" departLane="random" />
	<vehicle id="v268" depart="81.82" route="r3880" type="CarDefault" departLane="random" />
	<vehicle id="v269" depart="84.85" route="r3880" type="CarDefault" departLane="random" />
	<vehicle id="v38" depart="87" route="r3879" type="CarDefault" departLane="random" />
	<vehicle id="v270" depart="87.88" route="r3880" type="CarDefault" departLane="random" />
	<vehicle id="v452" depart="88.89" route="r3881" type="CarDefault" departLane="random" />
	<vehicle id="v622" depart="88.89" route="r3882" type="CarDefault" departLane="random" />
	<vehicle id="v36" depart="90" route="sr459" type="CarDefault" departLane="random" />
	<vehicle id="v271" depart="90.91" route="sr460" type="CarDefault" departLane="random" />
	<vehicle id="v272" depart="93.94" route="sr460" type="CarDefault" departLane="random" />
	<vehicle id="v453" depart="96.3" route="sr461" type="CarDefault" departLane="random" />
	<vehicle id="v623" depart="96.3" route="sr462" type="CarDefault" departLane="random" />
	<vehicle id="v273" depart="96.97" route="sr460" type="CarDefault" departLane="random" />
	<vehicle id="v37" depart="99" route="sr459" type="CarDefault" departLane="random" />
	<vehicle id="v49" depart="100" route="sr459" type="CarDefault" departLane="random" />
	<vehicle id="v274" depart="100.0" route="sr460" type="CarDefault" departLane="random" />
	<vehicle id="v39" depart="101" route="sr459" type="CarDefault" departLane="random" />
	<vehicle id="v43" depart="103" route="sr459" type="CarDefault" departLane="random" />
	<vehicle id="v275" depart="103.03" route="sr460" type="CarDefault" departLane="random" />
	<vehicle id="v454" depart="103.7" route="sr461" type="CarDefault" departLane="random" />
	<vehicle id="v624" depart="103.7" route="sr462" type="CarDefault" departLane="random" />
	<vehicle id="v45" depart="105" route="sr459" type="CarDefault" departLane="random" />
	<vehicle id="v276" depart="106.06" route="sr460" type="CarDefault" departLane="random" />
	<vehicle id="v470" depart="108" route="sr461" type="CarDefault" departLane="random" />
	<vehicle id="v277" depart="109.09" route="sr460" type="CarDefault" departLane="random" />
	<vehicle id="v42" depart="111" route="sr459" type="CarDefault" departLane="random" />
	<vehicle id="v638" depart="111" route="sr462" type="CarDefault" departLane="random" />
	<vehicle id="v455" depart="111.11" route="sr461" type="CarDefault" departLane="random" />
	<vehicle id="v625" depart="111.11" route="sr462" type="CarDefault" departLane="random" />
	<vehicle id="v46" depart="112" route="sr459" type="CarDefault" departLane="random" />
	<vehicle id="v278" depart="112.12" route="sr460" type="CarDefault" departLane="random" />
	<vehicle id="v44" depart="113" route="sr459" type="CarDefault" departLane="random" />
	<vehicle id="v469" depart="113" route="sr461" type="CarDefault" departLane="random" />
	<vehicle id="v279" depart="115.15" route="sr460" type="CarDefault" departLane="random" />
	<vehicle id="v47" depart="116" route="sr459" type="CarDefault" departLane="random" />
	<vehicle id="v41" depart="117" route="sr459" type="CarDefault" departLane="random" />
	<vehicle id="v48" depart="117" route="sr459" type="CarDefault" departLane="random" />
	<vehicle id="v642" depart="118" route="sr462" type="CarDefault" departLane="random" />
	<vehicle id="v280" depart="118.18" route="sr460" type="CarDefault" departLane="random" />
	<vehicle id="v456" depart="118.52" route="sr461" type="CarDefault" departLane="random" />
	<vehicle id="v626" depart="118.52" route="sr462" type="CarDefault" departLane="random" />
	<vehicle id="v40" depart="119" route="sr459" type="CarDefault" departLane="random" />
	<vehicle id="v55" depart="120" route="sr459" type="CarDefault" departLane="random" />
	<vehicle id="v59" depart="120" route="sr459" type="CarDefault" departLane="random" />
	<vehicle id="v51" depart="121" route="sr459" type="CarDefault" departLane="random" />
	<vehicle id="v281" depart="121.21" route="sr460" type="CarDefault" departLane="random" />
	<vehicle id="v54" depart="124" route="sr459" type="CarDefault" departLane="random" />
	<vehicle id="v282" depart="124.24" route="sr460" type="CarDefault" departLane="random" />
	<vehicle id="v457" depart="125.93" route="sr461" type="CarDefault" departLane="random" />
	<vehicle id="v627" depart="125.93" route="sr462" type="CarDefault" departLane="random" />
	<vehicle id="v283" depart="127.27" route="sr460" type="CarDefault" departLane="random" />
	<vehicle id="v468" depart="130" route="sr461" type="CarDefault" departLane="random" />
	<vehicle id="v284" depart="130.3" route="sr460" type="CarDefault" departLane="random" />
	<vehicle id="v52" depart="131" route="sr459" type="CarDefault" departLane="random" />
	<vehicle id="v57" depart="131" route="sr459" type="CarDefault" departLane="random" />
	<vehicle id="v58" depart="133" route="sr459" type="CarDefault" departLane="random" />
	<vehicle id="v471" depart="133" route="sr461" type="CarDefault" departLane="random" />
	<vehicle id="v285" depart="133.33" route="sr460" type="CarDefault" departLane="random" />
	<vehicle id="v458" depart="133.33" route="sr461" type="CarDefault" departLane="random" />
	<vehicle id="v628" depart="133.33" route="sr462" type="CarDefault" departLane="random" />
	<vehicle id="v60" depart="134" route="sr459" type="CarDefault" departLane="random" />
	<vehicle id="v56" depart="135" route="sr459" type="CarDefault" departLane="random" />
	<vehicle id="v61" depart="135" route="sr459" type="CarDefault" departLane="random" />
	<vehicle id="v286" depart="136.36" route="sr460" type="CarDefault" departLane="random" />
	<vehicle id="v50" depart="137" route="sr459" type="CarDefault" departLane="random" />
	<vehicle id="v643" depart="138" route="sr462" type="CarDefault" departLane="random" />
	<vehicle id="v53" depart="139" route="sr459" type="CarDefault" departLane="random" />
	<vehicle id="v287" depart="139.39" route="sr460" type="CarDefault" departLane="random" />
	<vehicle id="v459" depart="140.74" route="sr461" type="CarDefault" departLane="random" />
	<vehicle id="v629" depart="140.74" route="sr462" type="CarDefault" departLane="random" />
	<vehicle id="v63" depart="142" route="sr459" type="CarDefault" departLane="random" />
	<vehicle id="v288" depart="142.42" route="sr460" type="CarDefault" departLane="random" />
	<vehicle id="v640" depart="144" route="sr462" type="CarDefault" departLane="random" />
	<vehicle id="v289" depart="145.45" route="sr460" type="CarDefault" departLane="random" />
	<vehicle id="v639" depart="146" route="sr462" type="CarDefault" departLane="random" />
	<vehicle id="v65" depart="148" route="sr459" type="CarDefault" departLane="random" />
	<vehicle id="v68" depart="148" route="sr459" type="CarDefault" departLane="random" />
	<vehicle id="v460" depart="148.15" route="sr461" type="CarDefault" departLane="random" />
	<vehicle id="v630" depart="148.15" route="sr462" type="CarDefault" departLane="random" />
	<vehicle id="v290" depart="148.48" route="sr460" type="CarDefault" departLane="random" />
	<vehicle id="v291" depart="151.52" route="r3880" type="CarDefault" departLane="random" />
	<vehicle id="v64" depart="154" route="r3879" type="CarDefault" departLane="random" />
	<vehicle id="v292" depart="154.55" route="r3880" type="CarDefault" departLane="random" />
	<vehicle id="v461" depart="155.56" route="r3881" type="CarDefault" departLane="random" />
	<vehicle id="v631" depart="155.56" route="r3882" type="CarDefault" departLane="random" />
	<vehicle id="v67" depart="156" route="r3879" type="CarDefault" departLane="random" />
	<vehicle id="v62" depart="157" route="r3879" type="CarDefault" departLane="random" />
	<vehicle id="v293" depart="157.58" route="r3880" type="CarDefault" departLane="random" />
	<vehicle id="v66" depart="158" route="r3879" type="CarDefault" departLane="random" />
	<vehicle id="v294" depart="160.61" route="r3880" type="CarDefault" departLane="random" />
	<vehicle id="v472" depart="162" route="r3881" type="CarDefault" departLane="random" />
	<vehicle id="v462" depart="162.96" route="r3881" type="CarDefault" departLane="random" />
	<vehicle id="v632" depart="162.96" route="r3882" type="CarDefault" departLane="random" />
	<vehicle id="v70" depart="163" route="r3879" type="CarDefault" departLane="random" />
	<vehicle id="v295" depart="163.64" route="r3880" type="CarDefault" departLane="random" />
	<vehicle id="v296" depart="166.67" route="r3880" type="CarDefault" departLane="random" />
	<vehicle id="v297" depart="169.7" route="r3880" type="CarDefault" departLane="random" />
	<vehicle id="v71" depart="170" route="r3879" type="CarDefault" departLane="random" />
	<vehicle id="v463" depart="170.37" route="r3881" type="CarDefault" departLane="random" />
	<vehicle id="v633" depart="170.37" route="r3882" type="CarDefault" departLane="random" />
	<vehicle id="v298" depart="172.73" route="r3880" type="CarDefault" departLane="random" />
	<vehicle id="v69" depart="173" route="r3879" type="CarDefault" departLane="random" />
	<vehicle id="v299" depart="175.76" route="r3880" type="CarDefault" departLane="random" />
	<vehicle id="v464" depart="177.78" route="r3881" type="CarDefault" departLane="random" />
	<vehicle id="v634" depart="177.78" route="r3882" type="CarDefault" departLane="random" />
	<vehicle id="v300" depart="178.79" route="r3880" type="CarDefault" departLane="random" />
	<vehicle id="v75" depart="180" route="sr459" type="CarDefault" departLane="random" />
	<vehicle id="v78" depart="180" route="sr459" type="CarDefault" departLane="random" />
	<vehicle id="v301" depart="181.82" route="sr460" type="CarDefault" departLane="random" />
	<vehicle id="v74" depart="184" route="sr459" type="CarDefault" departLane="random" />
	<vehicle id="v302" depart="184.85" route="sr460" type="CarDefault" departLane="random" />
	<vehicle id="v465" depart="185.19" route="sr461" type="CarDefault" departLane="random" />
	<vehicle id="v635" depart="185.19" route="sr462" type="CarDefault" departLane="random" />
	<vehicle id="v79" depart="187" route="sr459" type="CarDefault" departLane="random" />
	<vehicle id="v303" depart="187.88" route="sr460" type="CarDefault" departLane="random" />
	<vehicle id="v83" depart="188" route="sr459" type="CarDefault" departLane="random" />
	<vehicle id="v77" depart="189" route="sr459" type="CarDefault" departLane="random" />
	<vehicle id="v304" depart="190.91" route="sr460" type="CarDefault" departLane="random" />
	<vehicle id="v466" depart="192.59" route="sr461" type="CarDefault" departLane="random" />
	<vehicle id="v636" depart="192.59" route="sr462" type="CarDefault" departLane="random" />
	<vehicle id="v305" depart="193.94" route="sr460" type="CarDefault" departLane="random" />
	<vehicle id="v72" depart="194" route="sr459" type="CarDefault" departLane="random" />
	<vehicle id="v73" depart="194" route="sr459" type="CarDefault" departLane="random" />
	<vehicle id="v76" depart="195" route="sr459" type="CarDefault" departLane="random" />
	<vehicle id="v82" depart="195" route="sr459" type="CarDefault" departLane="random" />
	<vehicle id="v81" depart="196" route="sr459" type="CarDefault" departLane="random" />
	<vehicle id="v641" depart="196" route="sr462" type="CarDefault" departLane="random" />
	<vehicle id="v306" depart="196.97" route="sr460" type="CarDefault" departLane="random" />
	<vehicle id="v80" depart="197" route="sr459" type="CarDefault" departLane="random" />
	<vehicle id="v84" depart="197" route="sr459" type="CarDefault" departLane="random" />
	<vehicle id="v307" depart="200.0" route="sr460" type="CarDefault" departLane="random" />
	<vehicle id="v467" depart="200.0" route="sr461" type="CarDefault" departLane="random" />
	<vehicle id="v473" depart="200.0" route="sr461" type="CarDefault" departLane="random" />
	<vehicle id="v637" depart="200.0" route="sr462" type="CarDefault" departLane="random" />
	<vehicle id="v644" depart="200.0" route="sr462" type="CarDefault" departLane="random" />
	<vehicle id="v87" depart="202" route="sr459" type="CarDefault" departLane="random" />
	<vehicle id="v308" depart="203.03" route="sr460" type="CarDefault" departLane="random" />
	<vehicle id="v474" depart="205.13" route="sr461" type="CarDefault" departLane="random" />
	<vehicle id="v645" depart="205.13" route="sr462" type="CarDefault" departLane="random" />
	<vehicle id="v309" depart="206.06" route="sr460" type="CarDefault" departLane="random" />
	<vehicle id="v86" depart="208" route="sr459" type="CarDefault" departLane="random" />
	<vehicle id="v310" depart="209.09" route="sr460" type="CarDefault" departLane="random" />
	<vehicle id="v475" depart="210.26" route="r3881" type="CarDefault" departLane="random" />
	<vehicle id="v646" depart="210.26" route="r3882" type="CarDefault" departLane="random" />
	<vehicle id="v89" depart="212" route="r3879" type="CarDefault" departLane="random" />
	<vehicle id="v311" depart="212.12" route="r3880" type="CarDefault" departLane="random" />
	<vehicle id="v85" depart="213" route="r3879" type="CarDefault" departLane="random" />
	<vehicle id="v312" depart="215.15" route="r3880" type="CarDefault" departLane="random" />
	<vehicle id="v476" depart="215.38" route="r3881" type="CarDefault" departLane="random" />
	<vehicle id="v647" depart="215.38" route="r3882" type="CarDefault" departLane="random" />
	<vehicle id="v88" depart="217" route="r3879" type="CarDefault" departLane="random" />
	<vehicle id="v313" depart="218.18" route="r3880" type="CarDefault" departLane="random" />
	<vehicle id="v477" depart="220.51" route="r3881" type="CarDefault" departLane="random" />
	<vehicle id="v648" depart="220.51" route="r3882" type="CarDefault" departLane="random" />
	<vehicle id="v90" depart="221" route="r3879" type="CarDefault" departLane="random" />
	<vehicle id="v314" depart="221.21" route="r3880" type="CarDefault" departLane="random" />
	<vehicle id="v97" depart="222" route="r3879" type="CarDefault" departLane="random" />
	<vehicle id="v94" depart="223" route="r3879" type="CarDefault" departLane="random" />
	<vehicle id="v96" depart="223" route="r3879" type="CarDefault" departLane="random" />
	<vehicle id="v315" depart="224.24" route="r3880" type="CarDefault" departLane="random" />
	<vehicle id="v478" depart="225.64" route="r3881" type="CarDefault" departLane="random" />
	<vehicle id="v649" depart="225.64" route="r3882" type="CarDefault" departLane="random" />
	<vehicle id="v92" depart="226" route="r3879" type="CarDefault" departLane="random" />
	<vehicle id="v316" depart="227.27" route="r3880" type="CarDefault" departLane="random" />
	<vehicle id="v317" depart="230.3" route="r3880" type="CarDefault" departLane="random" />
	<vehicle id="v479" depart="230.77" route="r3881" type="CarDefault" departLane="random" />
	<vehicle id="v650" depart="230.77" route="r3882" type="CarDefault" departLane="random" />
	<vehicle id="v318" depart="233.33" route="r3880" type="CarDefault" departLane="random" />
	<vehicle id="v93" depart="235" route="r3879" type="CarDefault" departLane="random" />
	<vehicle id="v480" depart="235.9" route="r3881" type="CarDefault" departLane="random" />
	<vehicle id="v651" depart="235.9" route="r3882" type="CarDefault" departLane="random" />
	<vehicle id="v319" depart="236.36" route="r3880" type="CarDefault" departLane="random" />
	<vehicle id="v95" depart="238" route="r3879" type="CarDefault" departLane="random" />
	<vehicle id="v91" depart="239" route="r3879" type="CarDefault" departLane="random" />
	<vehicle id="v320" depart="239.39" route="r3880" type="CarDefault" departLane="random" />
	<vehicle id="v103" depart="240" route="sr459" type="CarDefault" departLane="random" />
	<vehicle id="v102" depart="241" route="sr459" type="CarDefault" departLane="random" />
	<vehicle id="v104" depart="241" route="sr459" type="CarDefault" departLane="random" />
	<vehicle id="v105" depart="241" route="sr459" type="CarDefault" departLane="random" />
	<vehicle id="v481" depart="241.03" route="sr461" type="CarDefault" departLane="random" />
	<vehicle id="v652" depart="241.03" route="sr462" type="CarDefault" departLane="random" />
	<vehicle id="v101" depart="242" route="sr459" type="CarDefault" departLane="random" />
	<vehicle id="v108" depart="242" route="sr459" type="CarDefault" departLane="random" />
	<vehicle id="v321" depart="242.42" route="sr460" type="CarDefault" departLane="random" />
	<vehicle id="v106" depart="243" route="sr459" type="CarDefault" departLane="random" />
	<vehicle id="v322" depart="245.45" route="sr460" type="CarDefault" departLane="random" />
	<vehicle id="v482" depart="246.15" route="sr461" type="CarDefault" departLane="random" />
	<vehicle id="v653" depart="246.15" route="sr462" type="CarDefault" departLane="random" />
	<vehicle id="v98" depart="248" route="sr459" type="CarDefault" departLane="random" />
	<vehicle id="v99" depart="248" route="sr459" type="CarDefault" departLane="random" />
	<vehicle id="v323" depart="248.48" route="sr460" type="CarDefault" departLane="random" />
	<vehicle id="v483" depart="251.28" route="sr461" type="CarDefault" departLane="random" />
	<vehicle id="v654" depart="251.28" route="sr462" type="CarDefault" departLane="random" />
	<vehicle id="v324" depart="251.52" route="sr460" type="CarDefault" departLane="random" />
	<vehicle id="v100" depart="253" route="sr459" type="CarDefault" departLane="random" />
	<vehicle id="v325" depart="254.55" route="sr460" type="CarDefault" departLane="random" />
	<vehicle id="v107" depart="255" route="sr459" type="CarDefault" departLane="random" />
	<vehicle id="v484" depart="256.41" route="sr461" type="CarDefault" departLane="random" />
	<vehicle id="v655" depart="256.41" route="sr462" type="CarDefault" departLane="random" />
	<vehicle id="v109" depart="257" route="sr459" type="CarDefault" departLane="random" />
	<vehicle id="v326" depart="257.58" route="sr460" type="CarDefault" departLane="random" />
	<vehicle id="v110" depart="259" route="sr459" type="CarDefault" departLane="random" />
	<vehicle id="v327" depart="260.61" route="sr460" type="CarDefault" departLane="random" />
	<vehicle id="v485" depart="261.54" route="sr461" type="CarDefault" departLane="random" />
	<vehicle id="v656" depart="261.54" route="sr462" type="CarDefault" departLane="random" />
	<vehicle id="v328" depart="263.64" route="sr460" type="CarDefault" departLane="random" />
	<vehicle id="v329" depart="266.67" route="sr460" type="CarDefault" departLane="random" />
	<vehicle id="v486" depart="266.67" route="sr461" type="CarDefault" departLane="random" />
	<vehicle id="v657" depart="266.67" route="sr462" type="CarDefault" departLane="random" />
	<vehicle id="v113" depart="267" route="sr459" type="CarDefault" departLane="random" />
	<vehicle id="v111" depart="268" route="sr459" type="CarDefault" departLane="random" />
	<vehicle id="v330" depart="269.7" route="sr460" type="CarDefault" departLane="random" />
	<vehicle id="v114" depart="270" route="r3879" type="CarDefault" departLane="random" />
	<vehicle id="v487" depart="271.79" route="r3881" type="CarDefault" departLane="random" />
	<vehicle id="v658" depart="271.79" route="r3882" type="CarDefault" departLane="random" />
	<vehicle id="v331" depart="272.73" route="r3880" type="CarDefault" departLane="random" />
	<vehicle id="v332" depart="275.76" route="r3880" type="CarDefault" departLane="random" />
	<vehicle id="v488" depart="276.92" route="r3881" type="CarDefault" departLane="random" />
	<vehicle id="v659" depart="276.92" route="r3882" type="CarDefault" departLane="random" />
	<vehicle id="v112" depart="278" route="r3879" type="CarDefault" departLane="random" />
	<vehicle id="v333" depart="278.79" route="r3880" type="CarDefault" departLane="random" />
	<vehicle id="v127" depart="280" route="r3879" type="CarDefault" departLane="random" />
	<vehicle id="v124" depart="281" route="r3879" type="CarDefault" departLane="random" />
	<vehicle id="v334" depart="281.82" route="r3880" type="CarDefault" departLane="random" />
	<vehicle id="v489" depart="282.05" route="r3881" type="CarDefault" departLane="random" />
	<vehicle id="v660" depart="282.05" route="r3882" type="CarDefault" departLane="random" />
	<vehicle id="v335" depart="284.85" route="r3880" type="CarDefault" departLane="random" />
	<vehicle id="v490" depart="287.18" route="r3881" type="CarDefault" departLane="random" />
	<vehicle id="v661" depart="287.18" route="r3882" type="CarDefault" departLane="random" />
	<vehicle id="v336" depart="287.88" route="r3880" type="CarDefault" departLane="random" />
	<vehicle id="v117" depart="288" route="r3879" type="CarDefault" departLane="random" />
	<vehicle id="v337" depart="290.91" route="r3880" type="CarDefault" departLane="random" />
	<vehicle id="v123" depart="292" route="r3879" type="CarDefault" departLane="random" />
	<vehicle id="v491" depart="292.31" route="r3881" type="CarDefault" departLane="random" />
	<vehicle id="v662" depart="292.31" route="r3882" type="CarDefault" departLane="random" />
	<vehicle id="v115" depart="293" route="r3879" type="CarDefault" departLane="random" />