<?xml version='1.0' encoding='utf-8'?>
<net xmlns:xsi="http://www.w3.org/2001/XMLSchema-instance" version="1.9" junctionCornerDetail="5" limitTurnSpeed="5.50" xsi:noNamespaceSchemaLocation="http://sumo.dlr.de/xsd/net_file.xsd">
	<location netOffset="-592248.66,-4518516.84" convBoundary="380.41,717.95,1838.00,3310.50" origBoundary="-73.905849,40.812476,-73.882837,40.842190" projParameter="+proj=utm +zone=18 +ellps=WGS84 +datum=WGS84 +units=m +no_defs" />
	<subgraphs>
		<subgraph id="sg0" from_junction="127" to_junction="117" edges="376,124,143,26,17,138,401,378,268,437,93,172,204,236,413,219,105,375,233,226,338,373,333,395,274,1,256,335,120,173,359,414,30,396,286,411,113,106,232,174,301,397,377,64,157,32,277,267,340,398,300,41,114,393,57,374,412,289,65,299,328,31,206,298,14,385,410,290,145,435,302,278,203,400,119,234,18,260,270,118,107,117,179,386,43,44,180,186,436,82,407,185,379,273,40,121,293,271,192,191,399,196,0,291,29,427,28,101,257,115,408,54,454,42,88,269,329,292,205,217,182,227,158,264,384,137,426,380,27,112,258,80,394,238,429,195,409,125,189,372,336,334,25,265,75,181,342,235,210,228,237,272,146,91,116,103,67,259,425,387,66,183,156,322,263,122,53,104,337,33,79,187,194,430" />
		<subgraph id="sg1" from_junction="154" to_junction="42" edges="361,13,376,348,124,185,12,5,164,136,121,194,3,138,72,268,59,415,129,81,207,172,204,196,105,375,62,29,373,68,123,38,101,209,7,20,142,1,115,370,276,161,341,120,173,269,58,359,438,30,249,422,208,371,113,447,106,174,301,419,137,267,21,112,80,70,162,195,92,125,300,114,372,374,360,250,385,299,298,6,265,342,69,203,119,210,416,74,116,103,163,73,118,453,117,122,19,61,104,4,134,186,79,71,22,82" />
		<subgraph id="sg2" from_junction="42" to_junction="11" edges="124,26,271,268,192,191,204,281,427,29,28,402,395,257,285,405,256,54,269,359,282,396,329,30,50,205,284,39,301,397,64,426,32,27,267,258,394,398,300,189,279,393,328,299,31,298,25,290,435,203,210,403,260,270,259,425,280,66,107,283,322,404,53,180,33,65" />
	</subgraphs>
	<type id="highway.bridleway" priority="1" numLanes="1" speed="2.78" allow="pedestrian" oneway="1" width="2.00" />
	<type id="highway.bus_guideway" priority="1" numLanes="1" speed="27.78" allow="bus" oneway="1" />
	<type id="highway.cycleway" priority="1" numLanes="1" speed="8.33" allow="bicycle" oneway="0" width="1.00" />
	<type id="highway.footway" priority="1" numLanes="1" speed="2.78" allow="pedestrian" oneway="1" width="2.00" />
	<type id="highway.ford" priority="1" numLanes="1" speed="2.78" allow="army" oneway="0" />
	<type id="highway.living_street" priority="2" numLanes="1" speed="2.78" disallow="tram rail_urban rail rail_electric rail_fast ship" oneway="0" />
	<type id="highway.motorway" priority="14" numLanes="2" speed="39.44" allow="private emergency authority army vip passenger hov taxi bus coach delivery truck trailer motorcycle evehicle custom1 custom2" oneway="1" />
	<type id="highway.motorway_link" priority="9" numLanes="1" speed="22.22" allow="private emergency authority army vip passenger hov taxi bus coach delivery truck trailer motorcycle evehicle custom1 custom2" oneway="1" />
	<type id="highway.path" priority="1" numLanes="1" speed="2.78" allow="pedestrian bicycle" oneway="0" width="2.00" />
	<type id="highway.pedestrian" priority="1" numLanes="1" speed="2.78" allow="pedestrian" oneway="1" width="2.00" />
	<type id="highway.primary" priority="12" numLanes="2" speed="27.78" disallow="tram rail_urban rail rail_electric rail_fast ship" oneway="0" />
	<type id="highway.primary_link" priority="7" numLanes="1" speed="22.22" disallow="tram rail_urban rail rail_electric rail_fast ship" oneway="0" />
	<type id="highway.raceway" priority="15" numLanes="2" speed="83.33" allow="vip" oneway="0" />
	<type id="highway.residential" priority="3" numLanes="1" speed="13.89" disallow="tram rail_urban rail rail_electric rail_fast ship" oneway="0" />
	<type id="highway.secondary" priority="11" numLanes="1" speed="27.78" disallow="tram rail_urban rail rail_electric rail_fast ship" oneway="0" />
	<type id="highway.secondary_link" priority="6" numLanes="1" speed="22.22" disallow="tram rail_urban rail rail_electric rail_fast ship" oneway="0" />
	<type id="highway.service" priority="1" numLanes="1" speed="5.56" allow="pedestrian delivery bicycle" oneway="0" />
	<type id="highway.stairs" priority="1" numLanes="1" speed="1.39" allow="pedestrian" oneway="1" width="2.00" />
	<type id="highway.step" priority="1" numLanes="1" speed="1.39" allow="pedestrian" oneway="1" width="2.00" />
	<type id="highway.steps" priority="1" numLanes="1" speed="1.39" allow="pedestrian" oneway="1" width="2.00" />
	<type id="highway.tertiary" priority="10" numLanes="1" speed="22.22" disallow="tram rail_urban rail rail_electric rail_fast ship" oneway="0" />
	<type id="highway.tertiary_link" priority="5" numLanes="1" speed="22.22" disallow="tram rail_urban rail rail_electric rail_fast ship" oneway="0" />
	<type id="highway.track" priority="1" numLanes="1" speed="5.56" allow="pedestrian motorcycle moped bicycle" oneway="0" />
	<type id="highway.trunk" priority="13" numLanes="2" speed="27.78" disallow="pedestrian bicycle tram rail_urban rail rail_electric rail_fast ship" oneway="0" />
	<type id="highway.trunk_link" priority="8" numLanes="1" speed="22.22" disallow="pedestrian bicycle tram rail_urban rail rail_electric rail_fast ship" oneway="0" />
	<type id="highway.unclassified" priority="4" numLanes="1" speed="13.89" disallow="tram rail_urban rail rail_electric rail_fast ship" oneway="0" />
	<type id="highway.unsurfaced" priority="1" numLanes="1" speed="8.33" disallow="tram rail_urban rail rail_electric rail_fast ship" oneway="0" />
	<type id="railway.highspeed" priority="21" numLanes="1" speed="69.44" allow="rail_fast" oneway="1" />
	<type id="railway.light_rail" priority="19" numLanes="1" speed="27.78" allow="rail_urban" oneway="1" />
	<type id="railway.preserved" priority="16" numLanes="1" speed="27.78" allow="rail" oneway="1" />
	<type id="railway.rail" priority="20" numLanes="1" speed="44.44" allow="rail" oneway="1" />
	<type id="railway.subway" priority="18" numLanes="1" speed="27.78" allow="rail_urban" oneway="1" />
	<type id="railway.tram" priority="17" numLanes="1" speed="13.89" allow="tram" oneway="1" />
	<edge id=":103_0" function="internal">
		<lane id=":103_0_0" index="0" disallow="tram rail_urban rail rail_electric rail_fast ship" speed="6.26" length="9.05" shape="772.47,1517.09 771.86,1514.64 770.61,1513.08 768.73,1512.40 766.22,1512.60" />
	</edge>
	<edge id=":103_1" function="internal">
		<lane id=":103_1_0" index="0" disallow="tram rail_urban rail rail_electric rail_fast ship" speed="7.80" length="14.68" shape="772.47,1517.09 772.64,1513.00 774.11,1510.10 776.87,1508.40 780.92,1507.89" />
	</edge>
	<edge id=":103_2" function="internal">
		<lane id=":103_2_0" index="0" disallow="tram rail_urban rail rail_electric rail_fast ship" speed="3.65" length="4.67" shape="772.47,1517.09 773.14,1515.82 773.90,1515.34 774.74,1515.65 775.65,1516.77" />
	</edge>
	<edge id=":103_3" function="internal">
		<lane id=":103_3_0" index="0" disallow="tram rail_urban rail rail_electric rail_fast ship" speed="6.27" length="9.05" shape="780.87,1511.08 778.37,1511.40 776.66,1512.45 775.76,1514.24 775.65,1516.77" />
	</edge>
	<edge id=":103_4" function="internal">
		<lane id=":103_4_0" index="0" disallow="tram rail_urban rail rail_electric rail_fast ship" speed="13.89" length="14.76" shape="780.87,1511.08 777.15,1511.13 773.50,1511.39 769.86,1511.89 766.22,1512.60" />
	</edge>
	<edge id=":103_5" function="internal">
		<lane id=":103_5_0" index="0" disallow="tram rail_urban rail rail_electric rail_fast ship" speed="3.65" length="1.44" shape="780.87,1511.08 779.68,1510.26" />
	</edge>
	<edge id=":103_9" function="internal">
		<lane id=":103_9_0" index="0" disallow="tram rail_urban rail rail_electric rail_fast ship" speed="3.65" length="3.23" shape="779.68,1510.26 779.30,1509.46 779.71,1508.66 780.92,1507.89" />
	</edge>
	<edge id=":103_6" function="internal">
		<lane id=":103_6_0" index="0" disallow="tram rail_urban rail rail_electric rail_fast ship" speed="13.89" length="15.53" shape="765.51,1509.48 769.27,1508.75 773.17,1508.23 777.09,1507.94 780.92,1507.89" />
	</edge>
	<edge id=":103_7" function="internal">
		<lane id=":103_7_0" index="0" disallow="tram rail_urban rail rail_electric rail_fast ship" speed="7.80" length="4.45" shape="765.51,1509.48 769.59,1509.15 769.92,1509.27" />
	</edge>
	<edge id=":103_8" function="internal">
		<lane id=":103_8_0" index="0" disallow="tram rail_urban rail rail_electric rail_fast ship" speed="3.65" length="1.44" shape="765.51,1509.48 766.85,1510.00" />
	</edge>
	<edge id=":103_10" function="internal">
		<lane id=":103_10_0" index="0" disallow="tram rail_urban rail rail_electric rail_fast ship" speed="7.80" length="10.23" shape="769.92,1509.27 772.64,1510.26 774.66,1512.79 775.65,1516.77" />
	</edge>
	<edge id=":103_11" function="internal">
		<lane id=":103_11_0" index="0" disallow="tram rail_urban rail rail_electric rail_fast ship" speed="3.65" length="3.23" shape="766.85,1510.00 767.42,1510.69 767.21,1511.56 766.22,1512.60" />
	</edge>
	<edge id=":104_0" function="internal">
		<lane id=":104_0_0" index="0" disallow="tram rail_urban rail rail_electric rail_fast ship" speed="13.89" length="15.96" shape="781.39,1589.47 779.39,1586.16 777.80,1582.40 776.34,1578.57 774.69,1575.02" />
	</edge>
	<edge id=":104_1" function="internal">
		<lane id=":104_1_0" index="0" disallow="tram rail_urban rail rail_electric rail_fast ship" speed="13.89" length="16.08" shape="781.39,1589.47 779.68,1586.07 778.86,1582.07 778.53,1577.87 778.26,1573.90" />
	</edge>
	<edge id=":104_2" function="internal">
		<lane id=":104_2_0" index="0" disallow="tram rail_urban rail rail_electric rail_fast ship" speed="3.65" length="1.44" shape="781.39,1589.47 781.28,1588.03" />
	</edge>
	<edge id=":104_6" function="internal">
		<lane id=":104_6_0" index="0" disallow="tram rail_urban rail rail_electric rail_fast ship" speed="3.65" length="3.23" shape="781.28,1588.03 781.67,1587.22 782.54,1587.04 783.91,1587.49" />
	</edge>
	<edge id=":104_3" function="internal">
		<lane id=":104_3_0" index="0" disallow="tram rail_urban rail rail_electric rail_fast ship" speed="13.89" length="14.37" shape="781.44,1573.57 781.61,1577.29 781.71,1580.92 782.30,1584.36 783.91,1587.49" />
	</edge>
	<edge id=":104_4" function="internal">
		<lane id=":104_4_0" index="0" disallow="tram rail_urban rail rail_electric rail_fast ship" speed="6.72" length="7.04" shape="781.44,1573.57 781.65,1579.85 781.34,1580.54" />
	</edge>
	<edge id=":104_5" function="internal">
		<lane id=":104_5_0" index="0" disallow="tram rail_urban rail rail_electric rail_fast ship" speed="3.65" length="1.44" shape="781.44,1573.57 780.77,1574.85" />
	</edge>
	<edge id=":104_7" function="internal">
		<lane id=":104_7_0" index="0" disallow="tram rail_urban rail rail_electric rail_fast ship" speed="6.72" length="11.24" shape="781.34,1580.54 780.60,1582.19 778.28,1580.58 774.69,1575.02" />
	</edge>
	<edge id=":104_8" function="internal">
		<lane id=":104_8_0" index="0" disallow="tram rail_urban rail rail_electric rail_fast ship" speed="3.65" length="3.23" shape="780.77,1574.85 780.01,1575.33 779.18,1575.01 778.26,1573.90" />
	</edge>
	<edge id=":105_0" function="internal">
		<lane id=":105_0_0" index="0" disallow="tram rail_urban rail rail_electric rail_fast ship" speed="13.89" length="8.13" shape="823.48,1643.41 818.55,1636.95" />
	</edge>
	<edge id=":105_1" function="internal">
		<lane id=":105_1_0" index="0" disallow="tram rail_urban rail rail_electric rail_fast ship" speed="3.65" length="1.44" shape="823.48,1643.41 823.45,1641.97" />
	</edge>
	<edge id=":105_6" function="internal">
		<lane id=":105_6_0" index="0" disallow="tram rail_urban rail rail_electric rail_fast ship" speed="3.65" length="3.23" shape="823.45,1641.97 823.87,1641.18 824.76,1641.05 826.10,1641.58" />
	</edge>
	<edge id=":105_2" function="internal">
		<lane id=":105_2_0" index="0" disallow="tram rail_urban rail rail_electric rail_fast ship" speed="8.61" length="7.76" shape="825.51,1634.07 825.06,1636.34 825.01,1638.35 825.36,1640.10 826.10,1641.58" />
	</edge>
	<edge id=":105_3" function="internal">
		<lane id=":105_3_0" index="0" disallow="tram rail_urban rail rail_electric rail_fast ship" speed="5.91" length="10.84" shape="825.51,1634.07 824.19,1637.53 822.59,1639.16 820.71,1638.97 818.55,1636.95" />
	</edge>
	<edge id=":105_4" function="internal">
		<lane id=":105_4_0" index="0" disallow="tram rail_urban rail rail_electric rail_fast ship" speed="13.89" length="8.30" shape="821.07,1634.97 826.10,1641.58" />
	</edge>
	<edge id=":105_5" function="internal">
		<lane id=":105_5_0" index="0" disallow="tram rail_urban rail rail_electric rail_fast ship" speed="3.65" length="1.44" shape="821.07,1634.97 821.18,1636.41" />
	</edge>
	<edge id=":105_7" function="internal">
		<lane id=":105_7_0" index="0" disallow="tram rail_urban rail rail_electric rail_fast ship" speed="3.65" length="3.23" shape="821.18,1636.41 820.80,1637.22 819.92,1637.40 818.55,1636.95" />
	</edge>
	<edge id=":106_0" function="internal">
		<lane id=":106_0_0" index="0" disallow="tram rail_urban rail rail_electric rail_fast ship" speed="6.34" length="9.04" shape="902.10,1757.72 900.48,1755.81 898.66,1754.93 896.66,1755.09 894.45,1756.29" />
	</edge>
	<edge id=":106_1" function="internal">
		<lane id=":106_1_0" index="0" disallow="tram rail_urban rail rail_electric rail_fast ship" speed="13.89" length="14.95" shape="902.10,1757.72 894.04,1745.12" />
	</edge>
	<edge id=":106_2" function="internal">
		<lane id=":106_2_0" index="0" disallow="tram rail_urban rail rail_electric rail_fast ship" speed="8.52" length="4.11" shape="902.10,1757.72 900.47,1754.07 900.46,1753.96" />
	</edge>
	<edge id=":106_3" function="internal">
		<lane id=":106_3_0" index="0" disallow="tram rail_urban rail rail_electric rail_fast ship" speed="3.65" length="1.44" shape="902.10,1757.72 902.14,1756.28" />
	</edge>
	<edge id=":106_16" function="internal">
		<lane id=":106_16_0" index="0" disallow="tram rail_urban rail rail_electric rail_fast ship" speed="8.52" length="10.71" shape="900.46,1753.96 900.31,1750.67 901.61,1747.52 904.38,1744.62" />
	</edge>
	<edge id=":106_17" function="internal">
		<lane id=":106_17_0" index="0" disallow="tram rail_urban rail rail_electric rail_fast ship" speed="3.65" length="3.23" shape="902.14,1756.28 902.60,1755.52 903.49,1755.43 904.81,1756.02" />
	</edge>
	<edge id=":106_4" function="internal">
		<lane id=":106_4_0" index="0" disallow="tram rail_urban rail rail_electric rail_fast ship" speed="7.12" length="10.07" shape="906.37,1747.12 904.48,1749.10 903.60,1751.24 903.70,1753.55 904.81,1756.02" />
	</edge>
	<edge id=":106_5" function="internal">
		<lane id=":106_5_0" index="0" disallow="tram rail_urban rail rail_electric rail_fast ship" speed="22.22" length="15.03" shape="906.37,1747.12 894.45,1756.29" />
	</edge>
	<edge id=":106_6" function="internal">
		<lane id=":106_6_0" index="0" disallow="tram rail_urban rail rail_electric rail_fast ship" speed="7.84" length="4.27" shape="906.37,1747.12 902.88,1749.16 902.65,1749.18" />
	</edge>
	<edge id=":106_7" function="internal">
		<lane id=":106_7_0" index="0" disallow="tram rail_urban rail rail_electric rail_fast ship" speed="3.65" length="1.44" shape="906.37,1747.12 904.93,1747.24" />
	</edge>
	<edge id=":106_18" function="internal">
		<lane id=":106_18_0" index="0" disallow="tram rail_urban rail rail_electric rail_fast ship" speed="7.84" length="10.29" shape="902.65,1749.18 899.66,1749.50 896.71,1748.16 894.04,1745.12" />
	</edge>
	<edge id=":106_19" function="internal">
		<lane id=":106_19_0" index="0" disallow="tram rail_urban rail rail_electric rail_fast ship" speed="3.65" length="3.23" shape="904.93,1747.24 904.12,1746.86 903.94,1745.99 904.38,1744.62" />
	</edge>
	<edge id=":106_8" function="internal">
		<lane id=":106_8_0" index="0" disallow="tram rail_urban rail rail_electric rail_fast ship" speed="6.31" length="9.04" shape="896.72,1743.37 898.38,1745.26 900.21,1746.09 902.21,1745.88 904.38,1744.62" />
	</edge>
	<edge id=":106_9" function="internal">
		<lane id=":106_9_0" index="0" disallow="tram rail_urban rail rail_electric rail_fast ship" speed="13.89" length="15.01" shape="896.72,1743.37 904.81,1756.02" />
	</edge>
	<edge id=":106_10" function="internal">
		<lane id=":106_10_0" index="0" disallow="tram rail_urban rail rail_electric rail_fast ship" speed="8.33" length="4.27" shape="896.72,1743.37 898.43,1747.01 898.44,1747.26" />
	</edge>
	<edge id=":106_11" function="internal">
		<lane id=":106_11_0" index="0" disallow="tram rail_urban rail rail_electric rail_fast ship" speed="3.65" length="1.44" shape="896.72,1743.37 896.71,1744.82" />
	</edge>
	<edge id=":106_20" function="internal">
		<lane id=":106_20_0" index="0" disallow="tram rail_urban rail rail_electric rail_fast ship" speed="8.33" length="10.48" shape="898.44,1747.26 898.62,1750.38 897.30,1753.47 894.45,1756.29" />
	</edge>
	<edge id=":106_21" function="internal">
		<lane id=":106_21_0" index="0" disallow="tram rail_urban rail rail_electric rail_fast ship" speed="3.65" length="3.23" shape="896.71,1744.82 896.26,1745.59 895.37,1745.69 894.04,1745.12" />
	</edge>
	<edge id=":106_12" function="internal">
		<lane id=":106_12_0" index="0" disallow="tram rail_urban rail rail_electric rail_fast ship" speed="6.91" length="9.82" shape="892.54,1753.72 894.43,1751.84 895.31,1749.79 895.18,1747.55 894.04,1745.12" />
	</edge>
	<edge id=":106_13" function="internal">
		<lane id=":106_13_0" index="0" disallow="tram rail_urban rail rail_electric rail_fast ship" speed="22.22" length="14.93" shape="892.54,1753.72 904.38,1744.62" />
	</edge>
	<edge id=":106_14" function="internal">
		<lane id=":106_14_0" index="0" disallow="tram rail_urban rail rail_electric rail_fast ship" speed="7.86" length="4.02" shape="892.54,1753.72 896.08,1751.80" />
	</edge>
	<edge id=":106_15" function="internal">
		<lane id=":106_15_0" index="0" disallow="tram rail_urban rail rail_electric rail_fast ship" speed="3.65" length="1.44" shape="892.54,1753.72 893.98,1753.64" />
	</edge>
	<edge id=":106_22" function="internal">
		<lane id=":106_22_0" index="0" disallow="tram rail_urban rail rail_electric rail_fast ship" speed="7.86" length="10.49" shape="896.08,1751.80 899.30,1751.55 902.21,1752.95 904.81,1756.02" />
	</edge>
	<edge id=":106_23" function="internal">
		<lane id=":106_23_0" index="0" disallow="tram rail_urban rail rail_electric rail_fast ship" speed="3.65" length="3.23" shape="893.98,1753.64 894.78,1754.05 894.94,1754.93 894.45,1756.29" />
	</edge>
	<edge id=":107_0" function="internal">
		<lane id=":107_0_0" index="0" disallow="tram rail_urban rail rail_electric rail_fast ship" speed="13.89" length="1.01" shape="1020.40,1922.01 1020.98,1922.83" />
	</edge>
	<edge id=":107_1" function="internal">
		<lane id=":107_1_0" index="0" disallow="tram rail_urban rail rail_electric rail_fast ship" speed="3.65" length="2.34" shape="1020.40,1922.01 1020.34,1920.57 1020.75,1919.77" />
	</edge>
	<edge id=":107_4" function="internal">
		<lane id=":107_4_0" index="0" disallow="tram rail_urban rail rail_electric rail_fast ship" speed="3.65" length="2.34" shape="1020.75,1919.77 1021.64,1919.63 1022.99,1920.13" />
	</edge>
	<edge id=":107_2" function="internal">
		<lane id=":107_2_0" index="0" disallow="tram rail_urban rail rail_electric rail_fast ship" speed="13.89" length="1.06" shape="1023.60,1920.99 1022.99,1920.13" />
	</edge>
	<edge id=":107_3" function="internal">
		<lane id=":107_3_0" index="0" disallow="tram rail_urban rail rail_electric rail_fast ship" speed="3.65" length="2.34" shape="1023.60,1920.99 1023.63,1922.43 1023.21,1923.22" />
	</edge>
	<edge id=":107_5" function="internal">
		<lane id=":107_5_0" index="0" disallow="tram rail_urban rail rail_electric rail_fast ship" speed="3.65" length="2.34" shape="1023.21,1923.22 1022.32,1923.35 1020.98,1922.83" />
	</edge>
	<edge id=":108_0" function="internal">
		<lane id=":108_0_0" index="0" disallow="tram rail_urban rail rail_electric rail_fast ship" speed="22.22" length="14.74" shape="1117.91,2214.32 1113.36,2228.34" />
	</edge>
	<edge id=":108_1" function="internal">
		<lane id=":108_1_0" index="0" disallow="tram rail_urban rail rail_electric rail_fast ship" speed="13.81" length="14.19" shape="1112.24,2214.47 1113.38,2217.94 1114.05,2221.37 1114.09,2224.82 1113.36,2228.34" />
	</edge>
	<edge id=":108_2" function="internal">
		<lane id=":108_2_0" index="0" disallow="tram rail_urban rail rail_electric rail_fast ship" speed="6.36" length="9.59" shape="1108.72,2221.70 1111.44,2222.51 1113.12,2223.89 1113.76,2225.83 1113.36,2228.34" />
	</edge>
	<edge id=":109_0" function="internal">
		<lane id=":109_0_0" index="0" disallow="tram rail_urban rail rail_electric rail_fast ship" speed="22.22" length="8.12" shape="923.04,1734.34 916.46,1739.11" />
	</edge>
	<edge id=":109_1" function="internal">
		<lane id=":109_1_0" index="0" disallow="tram rail_urban rail rail_electric rail_fast ship" speed="6.18" length="2.57" shape="923.04,1734.34 920.69,1735.38" />
	</edge>
	<edge id=":109_2" function="internal">
		<lane id=":109_2_0" index="0" disallow="tram rail_urban rail rail_electric rail_fast ship" speed="3.65" length="1.44" shape="923.04,1734.34 921.59,1734.37" />
	</edge>
	<edge id=":109_6" function="internal">
		<lane id=":109_6_0" index="0" disallow="tram rail_urban rail rail_electric rail_fast ship" speed="6.18" length="7.90" shape="920.69,1735.38 918.77,1734.96 917.26,1733.07 916.18,1729.72" />
	</edge>
	<edge id=":109_7" function="internal">
		<lane id=":109_7_0" index="0" disallow="tram rail_urban rail rail_electric rail_fast ship" speed="3.65" length="3.23" shape="921.59,1734.37 920.81,1733.94 920.68,1733.05 921.21,1731.71" />
	</edge>
	<edge id=":109_3" function="internal">
		<lane id=":109_3_0" index="0" disallow="tram rail_urban rail rail_electric rail_fast ship" speed="7.28" length="7.48" shape="914.47,1736.60 915.60,1735.36 916.26,1733.80 916.45,1731.92 916.18,1729.72" />
	</edge>
	<edge id=":109_4" function="internal">
		<lane id=":109_4_0" index="0" disallow="tram rail_urban rail rail_electric rail_fast ship" speed="22.22" length="8.33" shape="914.47,1736.60 921.21,1731.71" />
	</edge>
	<edge id=":109_5" function="internal">
		<lane id=":109_5_0" index="0" disallow="tram rail_urban rail rail_electric rail_fast ship" speed="3.65" length="1.44" shape="914.47,1736.60 915.91,1736.48" />
	</edge>
	<edge id=":109_8" function="internal">
		<lane id=":109_8_0" index="0" disallow="tram rail_urban rail rail_electric rail_fast ship" speed="3.65" length="3.23" shape="915.91,1736.48 916.72,1736.86 916.90,1737.73 916.46,1739.11" />
	</edge>
	<edge id=":110_0" function="internal">
		<lane id=":110_0_0" index="0" disallow="tram rail_urban rail rail_electric rail_fast ship" speed="13.89" length="0.30" shape="924.70,2193.84 925.00,2193.88" />
	</edge>
	<edge id=":111_0" function="internal">
		<lane id=":111_0_0" index="0" disallow="tram rail_urban rail rail_electric rail_fast ship" speed="27.78" length="8.57" shape="896.69,2407.58 889.53,2402.88" />
	</edge>
	<edge id=":111_1" function="internal">
		<lane id=":111_1_0" index="0" disallow="tram rail_urban rail rail_electric rail_fast ship" speed="7.29" length="7.70" shape="896.69,2407.58 895.44,2406.41 894.66,2404.86 894.34,2402.94 894.48,2400.64" />
	</edge>
	<edge id=":113_0" function="internal">
		<lane id=":113_0_0" index="0" disallow="tram rail_urban rail rail_electric rail_fast ship" speed="27.78" length="0.34" shape="1082.23,2588.14 1082.13,2588.13 1082.06,2588.12 1081.99,2588.11 1081.90,2588.08" />
	</edge>
	<edge id=":12_0" function="internal">
		<lane id=":12_0_0" index="0" disallow="tram rail_urban rail rail_electric rail_fast ship" speed="19.48" length="12.73" shape="518.83,2115.53 516.06,2113.64 513.34,2112.50 510.46,2111.65 507.19,2110.60" />
	</edge>
	<edge id=":12_1" function="internal">
		<lane id=":12_1_0" index="0" disallow="tram rail_urban rail rail_electric rail_fast ship" speed="27.78" length="12.70" shape="518.83,2115.53 509.00,2107.49" />
	</edge>
	<edge id=":12_2" function="internal">
		<lane id=":12_2_0" index="0" disallow="tram rail_urban rail rail_electric rail_fast ship" speed="3.65" length="1.44" shape="518.83,2115.53 518.43,2114.14" />
	</edge>
	<edge id=":12_6" function="internal">
		<lane id=":12_6_0" index="0" disallow="tram rail_urban rail rail_electric rail_fast ship" speed="3.65" length="3.23" shape="518.43,2114.14 518.64,2113.27 519.47,2112.92 520.90,2113.09" />
	</edge>
	<edge id=":12_3" function="internal">
		<lane id=":12_3_0" index="0" disallow="tram rail_urban rail rail_electric rail_fast ship" speed="27.78" length="12.70" shape="511.07,2105.04 520.90,2113.09" />
	</edge>
	<edge id=":12_4" function="internal">
		<lane id=":12_4_0" index="0" disallow="tram rail_urban rail rail_electric rail_fast ship" speed="4.94" length="2.01" shape="511.07,2105.04 512.07,2106.79" />
	</edge>
	<edge id=":12_5" function="internal">
		<lane id=":12_5_0" index="0" disallow="tram rail_urban rail rail_electric rail_fast ship" speed="3.65" length="1.44" shape="511.07,2105.04 511.47,2106.43" />
	</edge>
	<edge id=":12_7" function="internal">
		<lane id=":12_7_0" index="0" disallow="tram rail_urban rail rail_electric rail_fast ship" speed="4.94" length="7.39" shape="512.07,2106.79 512.22,2107.06 511.58,2109.17 509.71,2110.60 507.19,2110.60" />
	</edge>
	<edge id=":12_8" function="internal">
		<lane id=":12_8_0" index="0" disallow="tram rail_urban rail rail_electric rail_fast ship" speed="3.65" length="3.24" shape="511.47,2106.43 511.25,2107.30 510.43,2107.65 509.00,2107.49" />
	</edge>
	<edge id=":126_0" function="internal">
		<lane id=":126_0_0" index="0" disallow="tram rail_urban rail rail_electric rail_fast ship" speed="22.22" length="0.30" shape="752.33,2437.12 752.17,2437.37" />
	</edge>
	<edge id=":129_0" function="internal">
		<lane id=":129_0_0" index="0" disallow="tram rail_urban rail rail_electric rail_fast ship" speed="13.89" length="9.04" shape="1027.85,1574.30 1019.42,1571.02" />
	</edge>
	<edge id=":129_1" function="internal">
		<lane id=":129_1_0" index="0" disallow="tram rail_urban rail rail_electric rail_fast ship" speed="3.65" length="1.44" shape="1027.85,1574.30 1027.03,1573.11" />
	</edge>
	<edge id=":129_6" function="internal">
		<lane id=":129_6_0" index="0" disallow="tram rail_urban rail rail_electric rail_fast ship" speed="3.65" length="3.23" shape="1027.03,1573.11 1026.95,1572.22 1027.62,1571.62 1029.03,1571.32" />
	</edge>
	<edge id=":129_2" function="internal">
		<lane id=":129_2_0" index="0" disallow="tram rail_urban rail rail_electric rail_fast ship" speed="13.89" length="9.11" shape="1020.54,1568.03 1029.03,1571.32" />
	</edge>
	<edge id=":129_3" function="internal">
		<lane id=":129_3_0" index="0" disallow="tram rail_urban rail rail_electric rail_fast ship" speed="3.65" length="1.44" shape="1020.54,1568.03 1021.38,1569.19" />
	</edge>
	<edge id=":129_7" function="internal">
		<lane id=":129_7_0" index="0" disallow="tram rail_urban rail rail_electric rail_fast ship" speed="3.65" length="3.23" shape="1021.38,1569.19 1021.48,1570.08 1020.83,1570.69 1019.42,1571.02" />
	</edge>
	<edge id=":129_4" function="internal">
		<lane id=":129_4_0" index="0" disallow="tram rail_urban rail rail_electric rail_fast ship" speed="7.10" length="7.98" shape="1023.06,1577.54 1022.84,1575.20 1022.16,1573.33 1021.02,1571.94 1019.42,1571.02" />
	</edge>
	<edge id=":129_5" function="internal">
		<lane id=":129_5_0" index="0" disallow="tram rail_urban rail rail_electric rail_fast ship" speed="6.31" length="10.83" shape="1023.06,1577.54 1023.44,1573.93 1024.57,1571.70 1026.43,1570.83 1029.03,1571.32" />
	</edge>
	<edge id=":13_0" function="internal">
		<lane id=":13_0_0" index="0" disallow="tram rail_urban rail rail_electric rail_fast ship" speed="6.63" length="9.19" shape="627.07,1980.16 624.52,1980.14 622.56,1980.90 621.20,1982.45 620.42,1984.80" />
	</edge>
	<edge id=":13_1" function="internal">
		<lane id=":13_1_0" index="0" disallow="tram rail_urban rail rail_electric rail_fast ship" speed="3.65" length="1.44" shape="627.07,1980.16 626.00,1979.19" />
	</edge>
	<edge id=":13_6" function="internal">
		<lane id=":13_6_0" index="0" disallow="tram rail_urban rail rail_electric rail_fast ship" speed="3.65" length="3.23" shape="626.00,1979.19 625.72,1978.34 626.23,1977.61 627.53,1976.99" />
	</edge>
	<edge id=":13_2" function="internal">
		<lane id=":13_2_0" index="0" disallow="tram rail_urban rail rail_electric rail_fast ship" speed="6.44" length="9.03" shape="622.94,1970.61 622.85,1973.10 623.59,1974.99 625.15,1976.29 627.53,1976.99" />
	</edge>
	<edge id=":13_3" function="internal">
		<lane id=":13_3_0" index="0" disallow="tram rail_urban rail rail_electric rail_fast ship" speed="13.89" length="14.41" shape="622.94,1970.61 620.42,1984.80" />
	</edge>
	<edge id=":13_4" function="internal">
		<lane id=":13_4_0" index="0" disallow="tram rail_urban rail rail_electric rail_fast ship" speed="13.89" length="11.77" shape="616.36,1973.90 619.11,1975.52 621.61,1976.28 624.27,1976.62 627.53,1976.99" />
	</edge>
	<edge id=":13_5" function="internal">
		<lane id=":13_5_0" index="0" disallow="tram rail_urban rail rail_electric rail_fast ship" speed="9.14" length="8.19" shape="616.36,1973.90 618.60,1976.02 620.02,1978.55 620.47,1980.71" />
	</edge>
	<edge id=":13_7" function="internal">
		<lane id=":13_7_0" index="0" disallow="tram rail_urban rail rail_electric rail_fast ship" speed="9.14" length="4.11" shape="620.47,1980.71 620.63,1981.47 620.42,1984.80" />
	</edge>
	<edge id=":130_0" function="internal">
		<lane id=":130_0_0" index="0" disallow="tram rail_urban rail rail_electric rail_fast ship" speed="22.22" length="16.45" shape="1030.52,1659.70 1017.05,1669.15" />
	</edge>
	<edge id=":130_1" function="internal">