<?xml version='1.0' encoding='utf-8'?>
<net xmlns:xsi="http://www.w3.org/2001/XMLSchema-instance" version="1.9" junctionCornerDetail="5" limitTurnSpeed="5.50" xsi:noNamespaceSchemaLocation="http://sumo.dlr.de/xsd/net_file.xsd">
	<location netOffset="-592248.66,-4518516.84" convBoundary="380.41,717.95,1838.00,3310.50" origBoundary="-73.905849,40.812476,-73.882837,40.842190" projParameter="+proj=utm +zone=18 +ellps=WGS84 +datum=WGS84 +units=m +no_defs" />
	<subgraphs>
		<subgraph id="sg0" from_junction="42" to_junction="154" edges="175,448,7,408,177,371,139,409,387,368,364,384,251,204,172,280,240,285,413,365,183,18,91,407,405,348,284,250,17,279,298,355,195,196,255,15,140,281,362,454,173,239,406,282,359,411,299,340,137,412,300,410,141,402,206,367,1,176,174,366,301,16,203,447,446,403,283,431,404,438,414,385" />
		<subgraph id="sg1" from_junction="127" to_junction="132" edges="257,175,371,25,187,33,150,181,180,291,384,413,158,259,233,182,336,338,183,18,322,435,265,91,149,436,393,17,449,65,374,235,226,66,286,224,454,329,154,378,146,394,173,359,397,274,155,234,289,115,271,143,137,290,399,27,277,206,29,210,1,401,328,28,79,64,260,174,379,263,227,203,429,447,238,446,376,225,145,221,335,452,112,36,408,448,34,222,343,375,31,386,30,409,192,14,387,278,220,258,204,172,236,230,398,185,272,437,113,344,407,156,273,114,32,37,268,223,75,93,334,270,15,147,67,57,103,80,395,340,264,300,205,430,410,26,35,396,337,157,232,269,345,228,380,116,301,124,148,16,342,186,400,377,414" />
		<subgraph id="sg2" from_junction="154" to_junction="117" edges="257,371,25,432,302,187,138,33,180,384,361,158,259,233,117,237,336,338,6,435,142,12,436,162,120,349,65,298,374,195,235,66,286,4,329,441,378,394,397,359,352,234,299,442,115,271,290,125,42,399,370,163,27,277,29,210,1,401,41,328,28,64,260,263,101,372,203,429,447,129,376,446,267,335,112,408,122,375,31,5,386,30,3,409,14,278,258,320,204,172,236,102,398,440,185,272,437,123,276,113,407,156,107,136,273,194,350,114,32,118,268,22,38,75,93,334,333,121,62,161,433,270,40,119,351,67,61,0,164,134,57,103,395,58,340,264,13,300,205,410,26,396,337,157,232,269,59,373,124,116,301,331,342,186,400,377,341,92,82" />
		<subgraph id="sg3" from_junction="117" to_junction="127" edges="109,302,63,187,181,180,95,49,384,207,413,158,259,182,117,336,183,338,435,265,339,217,120,65,298,54,195,304,66,39,329,191,397,274,411,299,48,94,271,412,290,125,188,189,402,81,29,210,79,328,64,260,56,101,153,178,429,108,238,403,267,404,221,317,335,385,88,135,408,122,303,31,3,192,159,316,387,220,51,236,102,230,272,437,407,405,179,53,128,107,273,363,194,118,32,268,209,38,75,334,333,121,55,196,110,52,106,119,256,67,406,164,134,103,169,80,208,340,47,111,205,430,216,300,104,396,337,232,89,269,301,318,105,82,414" />
	</subgraphs>
	<type id="highway.bridleway" priority="1" numLanes="1" speed="2.78" allow="pedestrian" oneway="1" width="2.00" />
	<type id="highway.bus_guideway" priority="1" numLanes="1" speed="27.78" allow="bus" oneway="1" />
	<type id="highway.cycleway" priority="1" numLanes="1" speed="8.33" allow="bicycle" oneway="0" width="1.00" />
	<type id="highway.footway" priority="1" numLanes="1" speed="2.78" allow="pedestrian" oneway="1" width="2.00" />
	<type id="highway.ford" priority="1" numLanes="1" speed="2.78" allow="army" oneway="0" />
	<type id="highway.living_street" priority="2" numLanes="1" speed="2.78" disallow="tram rail_urban rail rail_electric rail_fast ship" oneway="0" />
	<type id="highway.motorway" priority="14" numLanes="2" speed="39.44" allow="private emergency authority army vip passenger hov taxi bus coach delivery truck trailer motorcycle evehicle custom1 custom2" oneway="1" />
	<type id="highway.motorway_link" priority="9" numLanes="1" speed="22.22" allow="private emergency authority army vip passenger hov taxi bus coach delivery truck trailer motorcycle evehicle custom1 custom2" oneway="1" />
	<type id="highway.path" priority="1" numLanes="1" speed="2.78" allow="pedestrian bicycle" oneway="0" width="2.00" />
	<type id="highway.pedestrian" priority="1" numLanes="1" speed="2.78" allow="pedestrian" oneway="1" width="2.00" />
	<type id="highway.primary" priority="12" numLanes="2" speed="27.78" disallow="tram rail_urban rail rail_electric rail_fast ship" oneway="0" />
	<type id="highway.primary_link" priority="7" numLanes="1" speed="22.22" disallow="tram rail_urban rail rail_electric rail_fast ship" oneway="0" />
	<type id="highway.raceway" priority="15" numLanes="2" speed="83.33" allow="vip" oneway="0" />
	<type id="highway.residential" priority="3" numLanes="1" speed="13.89" disallow="tram rail_urban rail rail_electric rail_fast ship" oneway="0" />
	<type id="highway.secondary" priority="11" numLanes="1" speed="27.78" disallow="tram rail_urban rail rail_electric rail_fast ship" oneway="0" />
	<type id="highway.secondary_link" priority="6" numLanes="1" speed="22.22" disallow="tram rail_urban rail rail_electric rail_fast ship" oneway="0" />
	<type id="highway.service" priority="1" numLanes="1" speed="5.56" allow="pedestrian delivery bicycle" oneway="0" />
	<type id="highway.stairs" priority="1" numLanes="1" speed="1.39" allow="pedestrian" oneway="1" width="2.00" />
	<type id="highway.step" priority="1" numLanes="1" speed="1.39" allow="pedestrian" oneway="1" width="2.00" />
	<type id="highway.steps" priority="1" numLanes="1" speed="1.39" allow="pedestrian" oneway="1" width="2.00" />
	<type id="highway.tertiary" priority="10" numLanes="1" speed="22.22" disallow="tram rail_urban rail rail_electric rail_fast ship" oneway="0" />
	<type id="highway.tertiary_link" priority="5" numLanes="1" speed="22.22" disallow="tram rail_urban rail rail_electric rail_fast ship" oneway="0" />
	<type id="highway.track" priority="1" numLanes="1" speed="5.56" allow="pedestrian motorcycle moped bicycle" oneway="0" />
	<type id="highway.trunk" priority="13" numLanes="2" speed="27.78" disallow="pedestrian bicycle tram rail_urban rail rail_electric rail_fast ship" oneway="0" />
	<type id="highway.trunk_link" priority="8" numLanes="1" speed="22.22" disallow="pedestrian bicycle tram rail_urban rail rail_electric rail_fast ship" oneway="0" />
	<type id="highway.unclassified" priority="4" numLanes="1" speed="13.89" disallow="tram rail_urban rail rail_electric rail_fast ship" oneway="0" />
	<type id="highway.unsurfaced" priority="1" numLanes="1" speed="8.33" disallow="tram rail_urban rail rail_electric rail_fast ship" oneway="0" />
	<type id="railway.highspeed" priority="21" numLanes="1" speed="69.44" allow="rail_fast" oneway="1" />
	<type id="railway.light_rail" priority="19" numLanes="1" speed="27.78" allow="rail_urban" oneway="1" />
	<type id="railway.preserved" priority="16" numLanes="1" speed="27.78" allow="rail" oneway="1" />
	<type id="railway.rail" priority="20" numLanes="1" speed="44.44" allow="rail" oneway="1" />
	<type id="railway.subway" priority="18" numLanes="1" speed="27.78" allow="rail_urban" oneway="1" />
	<type id="railway.tram" priority="17" numLanes="1" speed="13.89" allow="tram" oneway="1" />
	<edge id=":103_0" function="internal">
		<lane id=":103_0_0" index="0" disallow="tram rail_urban rail rail_electric rail_fast ship" speed="6.26" length="9.05" shape="772.47,1517.09 771.86,1514.64 770.61,1513.08 768.73,1512.40 766.22,1512.60" />
	</edge>
	<edge id=":103_1" function="internal">
		<lane id=":103_1_0" index="0" disallow="tram rail_urban rail rail_electric rail_fast ship" speed="7.80" length="14.68" shape="772.47,1517.09 772.64,1513.00 774.11,1510.10 776.87,1508.40 780.92,1507.89" />
	</edge>
	<edge id=":103_2" function="internal">
		<lane id=":103_2_0" index="0" disallow="tram rail_urban rail rail_electric rail_fast ship" speed="3.65" length="4.67" shape="772.47,1517.09 773.14,1515.82 773.90,1515.34 774.74,1515.65 775.65,1516.77" />
	</edge>
	<edge id=":103_3" function="internal">
		<lane id=":103_3_0" index="0" disallow="tram rail_urban rail rail_electric rail_fast ship" speed="6.27" length="9.05" shape="780.87,1511.08 778.37,1511.40 776.66,1512.45 775.76,1514.24 775.65,1516.77" />
	</edge>
	<edge id=":103_4" function="internal">
		<lane id=":103_4_0" index="0" disallow="tram rail_urban rail rail_electric rail_fast ship" speed="13.89" length="14.76" shape="780.87,1511.08 777.15,1511.13 773.50,1511.39 769.86,1511.89 766.22,1512.60" />
	</edge>
	<edge id=":103_5" function="internal">
		<lane id=":103_5_0" index="0" disallow="tram rail_urban rail rail_electric rail_fast ship" speed="3.65" length="1.44" shape="780.87,1511.08 779.68,1510.26" />
	</edge>
	<edge id=":103_9" function="internal">
		<lane id=":103_9_0" index="0" disallow="tram rail_urban rail rail_electric rail_fast ship" speed="3.65" length="3.23" shape="779.68,1510.26 779.30,1509.46 779.71,1508.66 780.92,1507.89" />
	</edge>
	<edge id=":103_6" function="internal">
		<lane id=":103_6_0" index="0" disallow="tram rail_urban rail rail_electric rail_fast ship" speed="13.89" length="15.53" shape="765.51,1509.48 769.27,1508.75 773.17,1508.23 777.09,1507.94 780.92,1507.89" />
	</edge>
	<edge id=":103_7" function="internal">
		<lane id=":103_7_0" index="0" disallow="tram rail_urban rail rail_electric rail_fast ship" speed="7.80" length="4.45" shape="765.51,1509.48 769.59,1509.15 769.92,1509.27" />
	</edge>
	<edge id=":103_8" function="internal">
		<lane id=":103_8_0" index="0" disallow="tram rail_urban rail rail_electric rail_fast ship" speed="3.65" length="1.44" shape="765.51,1509.48 766.85,1510.00" />
	</edge>
	<edge id=":103_10" function="internal">
		<lane id=":103_10_0" index="0" disallow="tram rail_urban rail rail_electric rail_fast ship" speed="7.80" length="10.23" shape="769.92,1509.27 772.64,1510.26 774.66,1512.79 775.65,1516.77" />
	</edge>
	<edge id=":103_11" function="internal">
		<lane id=":103_11_0" index="0" disallow="tram rail_urban rail rail_electric rail_fast ship" speed="3.65" length="3.23" shape="766.85,1510.00 767.42,1510.69 767.21,1511.56 766.22,1512.60" />
	</edge>
	<edge id=":104_0" function="internal">
		<lane id=":104_0_0" index="0" disallow="tram rail_urban rail rail_electric rail_fast ship" speed="13.89" length="15.96" shape="781.39,1589.47 779.39,1586.16 777.80,1582.40 776.34,1578.57 774.69,1575.02" />
	</edge>
	<edge id=":104_1" function="internal">
		<lane id=":104_1_0" index="0" disallow="tram rail_urban rail rail_electric rail_fast ship" speed="13.89" length="16.08" shape="781.39,1589.47 779.68,1586.07 778.86,1582.07 778.53,1577.87 778.26,1573.90" />
	</edge>
	<edge id=":104_2" function="internal">
		<lane id=":104_2_0" index="0" disallow="tram rail_urban rail rail_electric rail_fast ship" speed="3.65" length="1.44" shape="781.39,1589.47 781.28,1588.03" />
	</edge>
	<edge id=":104_6" function="internal">
		<lane id=":104_6_0" index="0" disallow="tram rail_urban rail rail_electric rail_fast ship" speed="3.65" length="3.23" shape="781.28,1588.03 781.67,1587.22 782.54,1587.04 783.91,1587.49" />
	</edge>
	<edge id=":104_3" function="internal">
		<lane id=":104_3_0" index="0" disallow="tram rail_urban rail rail_electric rail_fast ship" speed="13.89" length="14.37" shape="781.44,1573.57 781.61,1577.29 781.71,1580.92 782.30,1584.36 783.91,1587.49" />
	</edge>
	<edge id=":104_4" function="internal">
		<lane id=":104_4_0" index="0" disallow="tram rail_urban rail rail_electric rail_fast ship" speed="6.72" length="7.04" shape="781.44,1573.57 781.65,1579.85 781.34,1580.54" />
	</edge>
	<edge id=":104_5" function="internal">
		<lane id=":104_5_0" index="0" disallow="tram rail_urban rail rail_electric rail_fast ship" speed="3.65" length="1.44" shape="781.44,1573.57 780.77,1574.85" />
	</edge>
	<edge id=":104_7" function="internal">
		<lane id=":104_7_0" index="0" disallow="tram rail_urban rail rail_electric rail_fast ship" speed="6.72" length="11.24" shape="781.34,1580.54 780.60,1582.19 778.28,1580.58 774.69,1575.02" />
	</edge>
	<edge id=":104_8" function="internal">
		<lane id=":104_8_0" index="0" disallow="tram rail_urban rail rail_electric rail_fast ship" speed="3.65" length="3.23" shape="780.77,1574.85 780.01,1575.33 779.18,1575.01 778.26,1573.90" />
	</edge>
	<edge id=":105_0" function="internal">
		<lane id=":105_0_0" index="0" disallow="tram rail_urban rail rail_electric rail_fast ship" speed="13.89" length="8.13" shape="823.48,1643.41 818.55,1636.95" />
	</edge>
	<edge id=":105_1" function="internal">
		<lane id=":105_1_0" index="0" disallow="tram rail_urban rail rail_electric rail_fast ship" speed="3.65" length="1.44" shape="823.48,1643.41 823.45,1641.97" />
	</edge>
	<edge id=":105_6" function="internal">
		<lane id=":105_6_0" index="0" disallow="tram rail_urban rail rail_electric rail_fast ship" speed="3.65" length="3.23" shape="823.45,1641.97 823.87,1641.18 824.76,1641.05 826.10,1641.58" />
	</edge>
	<edge id=":105_2" function="internal">
		<lane id=":105_2_0" index="0" disallow="tram rail_urban rail rail_electric rail_fast ship" speed="8.61" length="7.76" shape="825.51,1634.07 825.06,1636.34 825.01,1638.35 825.36,1640.10 826.10,1641.58" />
	</edge>
	<edge id=":105_3" function="internal">
		<lane id=":105_3_0" index="0" disallow="tram rail_urban rail rail_electric rail_fast ship" speed="5.91" length="10.84" shape="825.51,1634.07 824.19,1637.53 822.59,1639.16 820.71,1638.97 818.55,1636.95" />
	</edge>
	<edge id=":105_4" function="internal">
		<lane id=":105_4_0" index="0" disallow="tram rail_urban rail rail_electric rail_fast ship" speed="13.89" length="8.30" shape="821.07,1634.97 826.10,1641.58" />
	</edge>
	<edge id=":105_5" function="internal">
		<lane id=":105_5_0" index="0" disallow="tram rail_urban rail rail_electric rail_fast ship" speed="3.65" length="1.44" shape="821.07,1634.97 821.18,1636.41" />
	</edge>
	<edge id=":105_7" function="internal">
		<lane id=":105_7_0" index="0" disallow="tram rail_urban rail rail_electric rail_fast ship" speed="3.65" length="3.23" shape="821.18,1636.41 820.80,1637.22 819.92,1637.40 818.55,1636.95" />
	</edge>
	<edge id=":106_0" function="internal">
		<lane id=":106_0_0" index="0" disallow="tram rail_urban rail rail_electric rail_fast ship" speed="6.34" length="9.04" shape="902.10,1757.72 900.48,1755.81 898.66,1754.93 896.66,1755.09 894.45,1756.29" />
	</edge>
	<edge id=":106_1" function="internal">
		<lane id=":106_1_0" index="0" disallow="tram rail_urban rail rail_electric rail_fast ship" speed="13.89" length="14.95" shape="902.10,1757.72 894.04,1745.12" />
	</edge>
	<edge id=":106_2" function="internal">
		<lane id=":106_2_0" index="0" disallow="tram rail_urban rail rail_electric rail_fast ship" speed="8.52" length="4.11" shape="902.10,1757.72 900.47,1754.07 900.46,1753.96" />
	</edge>
	<edge id=":106_3" function="internal">
		<lane id=":106_3_0" index="0" disallow="tram rail_urban rail rail_electric rail_fast ship" speed="3.65" length="1.44" shape="902.10,1757.72 902.14,1756.28" />
	</edge>
	<edge id=":106_16" function="internal">
		<lane id=":106_16_0" index="0" disallow="tram rail_urban rail rail_electric rail_fast ship" speed="8.52" length="10.71" shape="900.46,1753.96 900.31,1750.67 901.61,1747.52 904.38,1744.62" />
	</edge>
	<edge id=":106_17" function="internal">
		<lane id=":106_17_0" index="0" disallow="tram rail_urban rail rail_electric rail_fast ship" speed="3.65" length="3.23" shape="902.14,1756.28 902.60,1755.52 903.49,1755.43 904.81,1756.02" />
	</edge>
	<edge id=":106_4" function="internal">
		<lane id=":106_4_0" index="0" disallow="tram rail_urban rail rail_electric rail_fast ship" speed="7.12" length="10.07" shape="906.37,1747.12 904.48,1749.10 903.60,1751.24 903.70,1753.55 904.81,1756.02" />
	</edge>
	<edge id=":106_5" function="internal">
		<lane id=":106_5_0" index="0" disallow="tram rail_urban rail rail_electric rail_fast ship" speed="22.22" length="15.03" shape="906.37,1747.12 894.45,1756.29" />
	</edge>
	<edge id=":106_6" function="internal">
		<lane id=":106_6_0" index="0" disallow="tram rail_urban rail rail_electric rail_fast ship" speed="7.84" length="4.27" shape="906.37,1747.12 902.88,1749.16 902.65,1749.18" />
	</edge>
	<edge id=":106_7" function="internal">
		<lane id=":106_7_0" index="0" disallow="tram rail_urban rail rail_electric rail_fast ship" speed="3.65" length="1.44" shape="906.37,1747.12 904.93,1747.24" />
	</edge>
	<edge id=":106_18" function="internal">
		<lane id=":106_18_0" index="0" disallow="tram rail_urban rail rail_electric rail_fast ship" speed="7.84" length="10.29" shape="902.65,1749.18 899.66,1749.50 896.71,1748.16 894.04,1745.12" />
	</edge>
	<edge id=":106_19" function="internal">
		<lane id=":106_19_0" index="0" disallow="tram rail_urban rail rail_electric rail_fast ship" speed="3.65" length="3.23" shape="904.93,1747.24 904.12,1746.86 903.94,1745.99 904.38,1744.62" />
	</edge>
	<edge id=":106_8" function="internal">
		<lane id=":106_8_0" index="0" disallow="tram rail_urban rail rail_electric rail_fast ship" speed="6.31" length="9.04" shape="896.72,1743.37 898.38,1745.26 900.21,1746.09 902.21,1745.88 904.38,1744.62" />
	</edge>
	<edge id=":106_9" function="internal">
		<lane id=":106_9_0" index="0" disallow="tram rail_urban rail rail_electric rail_fast ship" speed="13.89" length="15.01" shape="896.72,1743.37 904.81,1756.02" />
	</edge>
	<edge id=":106_10" function="internal">
		<lane id=":106_10_0" index="0" disallow="tram rail_urban rail rail_electric rail_fast ship" speed="8.33" length="4.27" shape="896.72,1743.37 898.43,1747.01 898.44,1747.26" />
	</edge>
	<edge id=":106_11" function="internal">
		<lane id=":106_11_0" index="0" disallow="tram rail_urban rail rail_electric rail_fast ship" speed="3.65" length="1.44" shape="896.72,1743.37 896.71,1744.82" />
	</edge>
	<edge id=":106_20" function="internal">
		<lane id=":106_20_0" index="0" disallow="tram rail_urban rail rail_electric rail_fast ship" speed="8.33" length="10.48" shape="898.44,1747.26 898.62,1750.38 897.30,1753.47 894.45,1756.29" />
	</edge>
	<edge id=":106_21" function="internal">
		<lane id=":106_21_0" index="0" disallow="tram rail_urban rail rail_electric rail_fast ship" speed="3.65" length="3.23" shape="896.71,1744.82 896.26,1745.59 895.37,1745.69 894.04,1745.12" />
	</edge>
	<edge id=":106_12" function="internal">
		<lane id=":106_12_0" index="0" disallow="tram rail_urban rail rail_electric rail_fast ship" speed="6.91" length="9.82" shape="892.54,1753.72 894.43,1751.84 895.31,1749.79 895.18,1747.55 894.04,1745.12" />
	</edge>
	<edge id=":106_13" function="internal">
		<lane id=":106_13_0" index="0" disallow="tram rail_urban rail rail_electric rail_fast ship" speed="22.22" length="14.93" shape="892.54,1753.72 904.38,1744.62" />
	</edge>
	<edge id=":106_14" function="internal">
		<lane id=":106_14_0" index="0" disallow="tram rail_urban rail rail_electric rail_fast ship" speed="7.86" length="4.02" shape="892.54,1753.72 896.08,1751.80" />
	</edge>
	<edge id=":106_15" function="internal">
		<lane id=":106_15_0" index="0" disallow="tram rail_urban rail rail_electric rail_fast ship" speed="3.65" length="1.44" shape="892.54,1753.72 893.98,1753.64" />
	</edge>
	<edge id=":106_22" function="internal">
		<lane id=":106_22_0" index="0" disallow="tram rail_urban rail rail_electric rail_fast ship" speed="7.86" length="10.49" shape="896.08,1751.80 899.30,1751.55 902.21,1752.95 904.81,1756.02" />
	</edge>
	<edge id=":106_23" function="internal">
		<lane id=":106_23_0" index="0" disallow="tram rail_urban rail rail_electric rail_fast ship" speed="3.65" length="3.23" shape="893.98,1753.64 894.78,1754.05 894.94,1754.93 894.45,1756.29" />
	</edge>
	<edge id=":107_0" function="internal">
		<lane id=":107_0_0" index="0" disallow="tram rail_urban rail rail_electric rail_fast ship" speed="13.89" length="1.01" shape="1020.40,1922.01 1020.98,1922.83" />
	</edge>
	<edge id=":107_1" function="internal">
		<lane id=":107_1_0" index="0" disallow="tram rail_urban rail rail_electric rail_fast ship" speed="3.65" length="2.34" shape="1020.40,1922.01 1020.34,1920.57 1020.75,1919.77" />
	</edge>
	<edge id=":107_4" function="internal">
		<lane id=":107_4_0" index="0" disallow="tram rail_urban rail rail_electric rail_fast ship" speed="3.65" length="2.34" shape="1020.75,1919.77 1021.64,1919.63 1022.99,1920.13" />
	</edge>
	<edge id=":107_2" function="internal">
		<lane id=":107_2_0" index="0" disallow="tram rail_urban rail rail_electric rail_fast ship" speed="13.89" length="1.06" shape="1023.60,1920.99 1022.99,1920.13" />
	</edge>
	<edge id=":107_3" function="internal">
		<lane id=":107_3_0" index="0" disallow="tram rail_urban rail rail_electric rail_fast ship" speed="3.65" length="2.34" shape="1023.60,1920.99 1023.63,1922.43 1023.21,1923.22" />
	</edge>
	<edge id=":107_5" function="internal">
		<lane id=":107_5_0" index="0" disallow="tram rail_urban rail rail_electric rail_fast ship" speed="3.65" length="2.34" shape="1023.21,1923.22 1022.32,1923.35 1020.98,1922.83" />
	</edge>
	<edge id=":108_0" function="internal">
		<lane id=":108_0_0" index="0" disallow="tram rail_urban rail rail_electric rail_fast ship" speed="8.76" length="16.09" shape="1119.13,2210.53 1117.68,2216.18 1117.41,2220.53 1118.30,2223.59 1120.36,2225.35" />
	</edge>
	<edge id=":108_1" function="internal">
		<lane id=":108_1_0" index="0" disallow="tram rail_urban rail rail_electric rail_fast ship" speed="22.22" length="19.22" shape="1119.13,2210.53 1113.21,2228.81" />
	</edge>
	<edge id=":108_2" function="internal">
		<lane id=":108_2_0" index="0" disallow="tram rail_urban rail rail_electric rail_fast ship" speed="6.27" length="2.47" shape="1119.13,2210.53 1117.70,2212.54" />
	</edge>
	<edge id=":108_3" function="internal">
		<lane id=":108_3_0" index="0" disallow="tram rail_urban rail rail_electric rail_fast ship" speed="3.65" length="1.44" shape="1119.13,2210.53 1118.00,2211.42" />
	</edge>
	<edge id=":108_16" function="internal">
		<lane id=":108_16_0" index="0" disallow="tram rail_urban rail rail_electric rail_fast ship" speed="6.27" length="12.69" shape="1117.70,2212.54 1116.75,2213.89 1113.27,2215.09 1109.94,2214.04 1108.01,2210.67" />
	</edge>
	<edge id=":108_17" function="internal">
		<lane id=":108_17_0" index="0" disallow="tram rail_urban rail rail_electric rail_fast ship" speed="3.65" length="3.23" shape="1118.00,2211.42 1117.12,2211.56 1116.48,2210.93 1116.08,2209.55" />
	</edge>
	<edge id=":108_4" function="internal">
		<lane id=":108_4_0" index="0" disallow="tram rail_urban rail rail_electric rail_fast ship" speed="5.56" length="11.53" shape="1111.06,2209.52 1112.04,2213.30 1113.21,2214.56 1114.56,2213.31 1116.08,2209.55" />
	</edge>
	<edge id=":108_5" function="internal">
		<lane id=":108_5_0" index="0" disallow="tram rail_urban rail rail_electric rail_fast ship" speed="12.13" length="19.08" shape="1111.06,2209.52 1112.50,2215.34 1114.53,2219.91 1117.15,2223.25 1120.36,2225.35" />
	</edge>
	<edge id=":108_6" function="internal">
		<lane id=":108_6_0" index="0" disallow="tram rail_urban rail rail_electric rail_fast ship" speed="18.05" length="19.55" shape="1111.06,2209.52 1111.98,2213.94 1113.04,2219.23 1113.65,2224.48 1113.21,2228.81" />
	</edge>
	<edge id=":108_7" function="internal">
		<lane id=":108_7_0" index="0" disallow="tram rail_urban rail rail_electric rail_fast ship" speed="3.67" length="1.58" shape="1111.06,2209.52 1110.73,2210.95 1110.65,2211.03" />
	</edge>
	<edge id=":108_18" function="internal">
		<lane id=":108_18_0" index="0" disallow="tram rail_urban rail rail_electric rail_fast ship" speed="3.67" length="3.17" shape="1110.65,2211.03 1110.11,2211.62 1109.21,2211.53 1108.01,2210.67" />
	</edge>
	<edge id=":108_8" function="internal">
		<lane id=":108_8_0" index="0" disallow="tram rail_urban rail rail_electric rail_fast ship" speed="6.80" length="12.53" shape="1105.07,2221.10 1107.10,2220.75 1108.27,2218.90 1108.58,2215.54 1108.01,2210.67" />
	</edge>
	<edge id=":108_9" function="internal">
		<lane id=":108_9_0" index="0" disallow="tram rail_urban rail rail_electric rail_fast ship" speed="9.30" length="17.33" shape="1105.07,2221.10 1108.35,2220.80 1111.28,2218.78 1113.86,2215.03 1116.08,2209.55" />
	</edge>
	<edge id=":108_10" function="internal">
		<lane id=":108_10_0" index="0" disallow="tram rail_urban rail rail_electric rail_fast ship" speed="13.89" length="15.90" shape="1105.07,2221.10 1108.89,2221.83 1112.83,2222.80 1116.72,2223.98 1120.36,2225.35" />
	</edge>
	<edge id=":108_11" function="internal">
		<lane id=":108_11_0" index="0" disallow="tram rail_urban rail rail_electric rail_fast ship" speed="7.30" length="12.99" shape="1105.07,2221.10 1109.37,2222.20 1112.16,2223.86 1113.44,2226.06 1113.21,2228.81" />
	</edge>
	<edge id=":108_12" function="internal">
		<lane id=":108_12_0" index="0" disallow="tram rail_urban rail rail_electric rail_fast ship" speed="18.05" length="17.43" shape="1110.17,2227.81 1110.61,2223.82 1110.00,2219.31 1108.94,2214.76 1108.01,2210.67" />
	</edge>
	<edge id=":108_13" function="internal">
		<lane id=":108_13_0" index="0" disallow="tram rail_urban rail rail_electric rail_fast ship" speed="22.22" length="19.20" shape="1110.17,2227.81 1116.08,2209.55" />
	</edge>
	<edge id=":108_14" function="internal">
		<lane id=":108_14_0" index="0" disallow="tram rail_urban rail rail_electric rail_fast ship" speed="7.22" length="2.74" shape="1110.17,2227.81 1111.53,2225.43" />
	</edge>
	<edge id=":108_15" function="internal">
		<lane id=":108_15_0" index="0" disallow="tram rail_urban rail rail_electric rail_fast ship" speed="3.65" length="1.44" shape="1110.17,2227.81 1111.30,2226.92" />
	</edge>
	<edge id=":108_19" function="internal">
		<lane id=":108_19_0" index="0" disallow="tram rail_urban rail rail_electric rail_fast ship" speed="7.22" length="9.31" shape="1111.53,2225.43 1113.69,2224.23 1116.63,2224.20 1120.36,2225.35" />
	</edge>
	<edge id=":108_20" function="internal">
		<lane id=":108_20_0" index="0" disallow="tram rail_urban rail rail_electric rail_fast ship" speed="3.65" length="3.23" shape="1111.30,2226.92 1112.19,2226.79 1112.82,2227.42 1113.21,2228.81" />
	</edge>
	<edge id=":109_0" function="internal">
		<lane id=":109_0_0" index="0" disallow="tram rail_urban rail rail_electric rail_fast ship" speed="22.22" length="8.12" shape="923.04,1734.34 916.46,1739.11" />
	</edge>
	<edge id=":109_1" function="internal">
		<lane id=":109_1_0" index="0" disallow="tram rail_urban rail rail_electric rail_fast ship" speed="6.18" length="2.57" shape="923.04,1734.34 920.69,1735.38" />
	</edge>
	<edge id=":109_2" function="internal">
		<lane id=":109_2_0" index="0" disallow="tram rail_urban rail rail_electric rail_fast ship" speed="3.65" length="1.44" shape="923.04,1734.34 921.59,1734.37" />
	</edge>
	<edge id=":109_6" function="internal">
		<lane id=":109_6_0" index="0" disallow="tram rail_urban rail rail_electric rail_fast ship" speed="6.18" length="7.90" shape="920.69,1735.38 918.77,1734.96 917.26,1733.07 916.18,1729.72" />
	</edge>
	<edge id=":109_7" function="internal">
		<lane id=":109_7_0" index="0" disallow="tram rail_urban rail rail_electric rail_fast ship" speed="3.65" length="3.23" shape="921.59,1734.37 920.81,1733.94 920.68,1733.05 921.21,1731.71" />
	</edge>
	<edge id=":109_3" function="internal">
		<lane id=":109_3_0" index="0" disallow="tram rail_urban rail rail_electric rail_fast ship" speed="7.28" length="7.48" shape="914.47,1736.60 915.60,1735.36 916.26,1733.80 916.45,1731.92 916.18,1729.72" />
	</edge>
	<edge id=":109_4" function="internal">
		<lane id=":109_4_0" index="0" disallow="tram rail_urban rail rail_electric rail_fast ship" speed="22.22" length="8.33" shape="914.47,1736.60 921.21,1731.71" />
	</edge>
	<edge id=":109_5" function="internal">
		<lane id=":109_5_0" index="0" disallow="tram rail_urban rail rail_electric rail_fast ship" speed="3.65" length="1.44" shape="914.47,1736.60 915.91,1736.48" />
	</edge>
	<edge id=":109_8" function="internal">
		<lane id=":109_8_0" index="0" disallow="tram rail_urban rail rail_electric rail_fast ship" speed="3.65" length="3.23" shape="915.91,1736.48 916.72,1736.86 916.90,1737.73 916.46,1739.11" />
	</edge>
	<edge id=":110_0" function="internal">
		<lane id=":110_0_0" index="0" disallow="tram rail_urban rail rail_electric rail_fast ship" speed="6.49" length="9.03" shape="919.29,2193.06 921.77,2193.06 923.65,2192.27 924.93,2190.68 925.61,2188.30" />
	</edge>
	<edge id=":110_1" function="internal">
		<lane id=":110_1_0" index="0" disallow="tram rail_urban rail rail_electric rail_fast ship" speed="13.89" length="11.21" shape="919.29,2193.06 930.39,2194.66" />
	</edge>
	<edge id=":110_2" function="internal">
		<lane id=":110_2_0" index="0" disallow="tram rail_urban rail rail_electric rail_fast ship" speed="13.89" length="11.21" shape="924.05,2199.40 925.61,2188.30" />
	</edge>
	<edge id=":110_3" function="internal">
		<lane id=":110_3_0" index="0" disallow="tram rail_urban rail rail_electric rail_fast ship" speed="6.51" length="4.11" shape="924.05,2199.40 924.75,2197.03 925.78,2195.76" />
	</edge>
	<edge id=":110_4" function="internal">
		<lane id=":110_4_0" index="0" disallow="tram rail_urban rail rail_electric rail_fast ship" speed="6.51" length="4.92" shape="925.78,2195.76 926.04,2195.44 927.92,2194.65 930.39,2194.66" />
	</edge>
	<edge id=":111_0" function="internal">
		<lane id=":111_0_0" index="0" disallow="tram rail_urban rail rail_electric rail_fast ship" speed="27.78" length="11.43" shape="896.65,2407.56 887.08,2401.30" />
	</edge>
	<edge id=":111_1" function="internal">
		<lane id=":111_1_0" index="0" disallow="tram rail_urban rail rail_electric rail_fast ship" speed="9.10" length="2.02" shape="896.65,2407.56 895.47,2406.09 895.43,2405.96" />
	</edge>
	<edge id=":111_2" function="internal">
		<lane id=":111_2_0" index="0" disallow="tram rail_urban rail rail_electric rail_fast ship" speed="3.65" length="1.44" shape="896.65,2407.56 896.10,2406.23" />
	</edge>
	<edge id=":111_6" function="internal">
		<lane id=":111_6_0" index="0" disallow="tram rail_urban rail rail_electric rail_fast ship" speed="9.10" length="10.35" shape="895.43,2405.96 894.84,2403.62 894.75,2400.17 895.22,2395.72" />
	</edge>
	<edge id=":111_7" function="internal">