<?xml version='1.0' encoding='utf-8'?>
<routes>
	<vType accel="3.0" decel="6.0" id="CarDefault" length="5.0" minGap="2.5" maxSpeed="50.0" sigma="0.5" />
	<route id="r23258" edges="954 658 659 910 494 417 416 148 147 146 145 144 1030 1031 1032 336 433 69 617 621 988 209 831 832" fromJunction="77" toJunction="241" />
	<route id="r23259" edges="488 975 976 743 744 745 741 608 763 371 335 253 252 269 268 267 107 92 375 885 866 867 706" fromJunction="357" toJunction="248" />
	<route id="r23260" edges="280 279 714 500 262 311 345 332 331 56 55 54 53 52 558 771 772 563 14 1026 1027 446 445 447 758 759 760" fromJunction="316" toJunction="87" />
	<route id="sr18596" edges="280 65 945 946 943 944 811 928 929 930 935 426 425 424 423 400 399 404 403 82 585 111 563 14 1026 1027 446 445 447 758 759 760" fromJunction="316" toJunction="87" />
	<route id="sr18599" edges="954 658 659 910 494 417 416 148 147 146 145 144 1030 1031 1032 336 433 837 889 538 1010 831 832" fromJunction="77" toJunction="241" />
	<route id="sr18598" edges="488 975 976 743 744 745 741 742 430 210 12 11 341 627 628 967 968 957 958 511 512 513 890 891 766 1018 1019 1020 1021 1022 898 961 1017 960 706" fromJunction="357" toJunction="248" />
	<vehicle id="v176" depart="0.0" route="r23260" type="CarDefault" departLane="random" />
	<vehicle id="v197" depart="0.0" route="r23259" type="CarDefault" departLane="random" />
	<vehicle id="v231" depart="0.0" route="r23258" type="CarDefault" departLane="random" />
	<vehicle id="v177" depart="6.0" route="r23260" type="CarDefault" departLane="random" />
	<vehicle id="v198" depart="10.0" route="r23259" type="CarDefault" departLane="random" />
	<vehicle id="v232" depart="10.0" route="r23258" type="CarDefault" departLane="random" />
	<vehicle id="v178" depart="12.0" route="r23260" type="CarDefault" departLane="random" />
	<vehicle id="v179" depart="18.0" route="r23260" type="CarDefault" departLane="random" />
	<vehicle id="v199" depart="20.0" route="r23259" type="CarDefault" departLane="random" />
	<vehicle id="v233" depart="20.0" route="r23258" type="CarDefault" departLane="random" />
	<vehicle id="v180" depart="24.0" route="r23260" type="CarDefault" departLane="random" />
	<vehicle id="v236" depart="25" route="r23258" type="CarDefault" departLane="random" />
	<vehicle id="v181" depart="30.0" route="r23260" type="CarDefault" departLane="random" />
	<vehicle id="v200" depart="30.0" route="r23259" type="CarDefault" departLane="random" />
	<vehicle id="v234" depart="30.0" route="r23258" type="CarDefault" departLane="random" />
	<vehicle id="v237" depart="30" route="r23258" type="CarDefault" departLane="random" />
	<vehicle id="v202" depart="31" route="r23259" type="CarDefault" departLane="random" />
	<vehicle id="v182" depart="36.0" route="r23260" type="CarDefault" departLane="random" />
	<vehicle id="v201" depart="40.0" route="r23259" type="CarDefault" departLane="random" />
	<vehicle id="v203" depart="40.0" route="r23259" type="CarDefault" departLane="random" />
	<vehicle id="v235" depart="40.0" route="r23258" type="CarDefault" departLane="random" />
	<vehicle id="v238" depart="40.0" route="r23258" type="CarDefault" departLane="random" />
	<vehicle id="v183" depart="42.0" route="r23260" type="CarDefault" departLane="random" />
	<vehicle id="v204" depart="45.71" route="r23259" type="CarDefault" departLane="random" />
	<vehicle id="v239" depart="45.71" route="r23258" type="CarDefault" departLane="random" />
	<vehicle id="v184" depart="48.0" route="r23260" type="CarDefault" departLane="random" />
	<vehicle id="v205" depart="51.43" route="r23259" type="CarDefault" departLane="random" />
	<vehicle id="v240" depart="51.43" route="r23258" type="CarDefault" departLane="random" />
	<vehicle id="v185" depart="54.0" route="r23260" type="CarDefault" departLane="random" />
	<vehicle id="v206" depart="57.14" route="r23259" type="CarDefault" departLane="random" />
	<vehicle id="v241" depart="57.14" route="r23258" type="CarDefault" departLane="random" />
	<vehicle id="v186" depart="60.0" route="r23260" type="CarDefault" departLane="random" />
	<vehicle id="v207" depart="62.86" route="r23259" type="CarDefault" departLane="random" />
	<vehicle id="v242" depart="62.86" route="r23258" type="CarDefault" departLane="random" />
	<vehicle id="v212" depart="63" route="r23259" type="CarDefault" departLane="random" />
	<vehicle id="v211" depart="65" route="r23259" type="CarDefault" departLane="random" />
	<vehicle id="v187" depart="66.0" route="r23260" type="CarDefault" departLane="random" />
	<vehicle id="v208" depart="68.57" route="r23259" type="CarDefault" departLane="random" />
	<vehicle id="v243" depart="68.57" route="r23258" type="CarDefault" departLane="random" />
	<vehicle id="v213" depart="70" route="r23259" type="CarDefault" departLane="random" />
	<vehicle id="v188" depart="72.0" route="r23260" type="CarDefault" departLane="random" />
	<vehicle id="v209" depart="74.29" route="r23259" type="CarDefault" departLane="random" />
	<vehicle id="v244" depart="74.29" route="r23258" type="CarDefault" departLane="random" />
	<vehicle id="v246" depart="75" route="r23258" type="CarDefault" departLane="random" />
	<vehicle id="v247" depart="75" route="r23258" type="CarDefault" departLane="random" />
	<vehicle id="v189" depart="78.0" route="r23260" type="CarDefault" departLane="random" />
	<vehicle id="v210" depart="80.0" route="r23259" type="CarDefault" departLane="random" />
	<vehicle id="v214" depart="80.0" route="r23259" type="CarDefault" departLane="random" />
	<vehicle id="v245" depart="80.0" route="r23258" type="CarDefault" departLane="random" />
	<vehicle id="v248" depart="80.0" route="r23258" type="CarDefault" departLane="random" />
	<vehicle id="v215" depart="83.33" route="r23259" type="CarDefault" departLane="random" />
	<vehicle id="v249" depart="83.33" route="r23258" type="CarDefault" departLane="random" />
	<vehicle id="v190" depart="84.0" route="r23260" type="CarDefault" departLane="random" />
	<vehicle id="v216" depart="86.67" route="r23259" type="CarDefault" departLane="random" />
	<vehicle id="v250" depart="86.67" route="r23258" type="CarDefault" departLane="random" />
	<vehicle id="v191" depart="90.0" route="r23260" type="CarDefault" departLane="random" />
	<vehicle id="v217" depart="90.0" route="r23259" type="CarDefault" departLane="random" />
	<vehicle id="v251" depart="90.0" route="r23258" type="CarDefault" departLane="random" />
	<vehicle id="v218" depart="93.33" route="r23259" type="CarDefault" departLane="random" />
	<vehicle id="v252" depart="93.33" route="r23258" type="CarDefault" departLane="random" />
	<vehicle id="v192" depart="96.0" route="r23260" type="CarDefault" departLane="random" />
	<vehicle id="v219" depart="96.67" route="r23259" type="CarDefault" departLane="random" />
	<vehicle id="v253" depart="96.67" route="r23258" type="CarDefault" departLane="random" />
	<vehicle id="v220" depart="100.0" route="sr18598" type="CarDefault" departLane="random" />
	<vehicle id="v254" depart="100.0" route="sr18599" type="CarDefault" departLane="random" />
	<vehicle id="v193" depart="102.0" route="sr18596" type="CarDefault" departLane="random" />
	<vehicle id="v221" depart="103.33" route="sr18598" type="CarDefault" departLane="random" />
	<vehicle id="v255" depart="103.33" route="sr18599" type="CarDefault" departLane="random" />
	<vehicle id="v229" depart="104" route="sr18598" type="CarDefault" departLane="random" />
	<vehicle id="v228" depart="105" route="sr18598" type="CarDefault" departLane="random" />
	<vehicle id="v262" depart="105" route="sr18599" type="CarDefault" departLane="random" />
	<vehicle id="v222" depart="106.67" route="sr18598" type="CarDefault" departLane="random" />
	<vehicle id="v256" depart="106.67" route="sr18599" type="CarDefault" departLane="random" />
	<vehicle id="v194" depart="108.0" route="sr18596" type="CarDefault" departLane="random" />
	<vehicle id="v261" depart="108" route="sr18599" type="CarDefault" departLane="random" />
	<vehicle id="v223" depart="110.0" route="sr18598" type="CarDefault" departLane="random" />
	<vehicle id="v257" depart="110.0" route="sr18599" type="CarDefault" departLane="random" />
	<vehicle id="v224" depart="113.33" route="sr18598" type="CarDefault" departLane="random" />
	<vehicle id="v258" depart="113.33" route="sr18599" type="CarDefault" departLane="random" />
	<vehicle id="v195" depart="114.0" route="sr18596" type="CarDefault" departLane="random" />
	<vehicle id="v263" depart="115" route="sr18599" type="CarDefault" departLane="random" />
	<vehicle id="v227" depart="116" route="sr18598" type="CarDefault" departLane="random" />
	<vehicle id="v225" depart="116.67" route="sr18598" type="CarDefault" departLane="random" />
	<vehicle id="v259" depart="116.67" route="sr18599" type="CarDefault" departLane="random" />
	<vehicle id="v230" depart="119" route="sr18598" type="CarDefault" departLane="random" />
	<vehicle id="v196" depart="120.0" route="sr18596" type="CarDefault" departLane="random" />
	<vehicle id="v226" depart="120.0" route="sr18598" type="CarDefault" departLane="random" />
	<vehicle id="v260" depart="120.0" route="sr18599" type="CarDefault" departLane="random" />
</routes>