<?xml version="1.0" encoding="UTF-8"?>

<!-- generated on 2022-10-09 22:06:35 by Eclipse SUMO netconvert Version 1.12.0
<configuration xmlns:xsi="http://www.w3.org/2001/XMLSchema-instance" xsi:noNamespaceSchemaLocation="http://sumo.dlr.de/xsd/netconvertConfiguration.xsd">

    <input>
        <sumo-net-file value="/home/svadlmat/UTC/utc/data/maps/sumo/New_York.net.xml"/>
    </input>

    <output>
        <output-file value="/home/svadlmat/UTC/utc/data/scenarios/22_06_23_new_york/maps/networks/22_06_23_new_york_similarity_shortest_length_sg.net.xml"/>
    </output>

    <processing>
        <geometry.min-radius.fix.railways value="false"/>
        <geometry.max-grade.fix value="false"/>
        <offset.disable-normalization value="true"/>
        <lefthand value="false"/>
    </processing>

    <edge_removal>
        <keep-edges.explicit value="248,115,406,75,402,61,365,182,12,429,119,134,73,395,59,180,405,81,15,301,4,454,125,38,178,69,231,124,259,68,367,47,334,322,394,106,384,92,282,163,274,398,104,113,299,272,108,91,122,13,364,26,209,251,66,204,260,393,329,233,116,265,25,162,373,185,397,273,28,107,123,80,49,203,257,413,228,120,5,48,375,280,348,58,33,183,6,226,361,206,374,54,340,238,79,114,194,227,50,328,187,32,72,112,129,31,430,300,121,376,341,16,118,371,70,255,196,285,403,103,249,286,64,270,181,74,117,258,164,431,53,29,188,71,179,195,140,18,205,210,359,141,396,62,269,435,290,65,283,284,234,298,268,161,208,27,186,368,404,250,17,101,281,189,105,109,279,372,271,57,67,366,82,30,139"/>
    </edge_removal>

    <junctions>
        <no-turnarounds value="true"/>
        <junctions.corner-detail value="5"/>
        <junctions.limit-turn-speed value="5.5"/>
        <rectangular-lane-cut value="false"/>
    </junctions>

    <pedestrian>
        <walkingareas value="false"/>
    </pedestrian>

    <report>
        <aggregate-warnings value="5"/>
    </report>

</configuration>
-->

<net version="1.9" junctionCornerDetail="5" limitTurnSpeed="5.50" xmlns:xsi="http://www.w3.org/2001/XMLSchema-instance" xsi:noNamespaceSchemaLocation="http://sumo.dlr.de/xsd/net_file.xsd">

    <location netOffset="-592248.66,-4518516.84" convBoundary="380.41,717.95,1838.00,2172.66" origBoundary="-73.905849,40.812476,-73.882837,40.842190" projParameter="+proj=utm +zone=18 +ellps=WGS84 +datum=WGS84 +units=m +no_defs"/>

    <type id="highway.bridleway" priority="1" numLanes="1" speed="2.78" allow="pedestrian" oneway="1" width="2.00"/>
    <type id="highway.bus_guideway" priority="1" numLanes="1" speed="27.78" allow="bus" oneway="1"/>
    <type id="highway.cycleway" priority="1" numLanes="1" speed="8.33" allow="bicycle" oneway="0" width="1.00"/>
    <type id="highway.footway" priority="1" numLanes="1" speed="2.78" allow="pedestrian" oneway="1" width="2.00"/>
    <type id="highway.ford" priority="1" numLanes="1" speed="2.78" allow="army" oneway="0"/>
    <type id="highway.living_street" priority="2" numLanes="1" speed="2.78" disallow="tram rail_urban rail rail_electric rail_fast ship" oneway="0"/>
    <type id="highway.motorway" priority="14" numLanes="2" speed="39.44" allow="private emergency authority army vip passenger hov taxi bus coach delivery truck trailer motorcycle evehicle custom1 custom2" oneway="1"/>
    <type id="highway.motorway_link" priority="9" numLanes="1" speed="22.22" allow="private emergency authority army vip passenger hov taxi bus coach delivery truck trailer motorcycle evehicle custom1 custom2" oneway="1"/>
    <type id="highway.path" priority="1" numLanes="1" speed="2.78" allow="pedestrian bicycle" oneway="0" width="2.00"/>
    <type id="highway.pedestrian" priority="1" numLanes="1" speed="2.78" allow="pedestrian" oneway="1" width="2.00"/>
    <type id="highway.primary" priority="12" numLanes="2" speed="27.78" disallow="tram rail_urban rail rail_electric rail_fast ship" oneway="0"/>
    <type id="highway.primary_link" priority="7" numLanes="1" speed="22.22" disallow="tram rail_urban rail rail_electric rail_fast ship" oneway="0"/>
    <type id="highway.raceway" priority="15" numLanes="2" speed="83.33" allow="vip" oneway="0"/>
    <type id="highway.residential" priority="3" numLanes="1" speed="13.89" disallow="tram rail_urban rail rail_electric rail_fast ship" oneway="0"/>
    <type id="highway.secondary" priority="11" numLanes="1" speed="27.78" disallow="tram rail_urban rail rail_electric rail_fast ship" oneway="0"/>
    <type id="highway.secondary_link" priority="6" numLanes="1" speed="22.22" disallow="tram rail_urban rail rail_electric rail_fast ship" oneway="0"/>
    <type id="highway.service" priority="1" numLanes="1" speed="5.56" allow="pedestrian delivery bicycle" oneway="0"/>
    <type id="highway.stairs" priority="1" numLanes="1" speed="1.39" allow="pedestrian" oneway="1" width="2.00"/>
    <type id="highway.step" priority="1" numLanes="1" speed="1.39" allow="pedestrian" oneway="1" width="2.00"/>
    <type id="highway.steps" priority="1" numLanes="1" speed="1.39" allow="pedestrian" oneway="1" width="2.00"/>
    <type id="highway.tertiary" priority="10" numLanes="1" speed="22.22" disallow="tram rail_urban rail rail_electric rail_fast ship" oneway="0"/>
    <type id="highway.tertiary_link" priority="5" numLanes="1" speed="22.22" disallow="tram rail_urban rail rail_electric rail_fast ship" oneway="0"/>
    <type id="highway.track" priority="1" numLanes="1" speed="5.56" allow="pedestrian motorcycle moped bicycle" oneway="0"/>
    <type id="highway.trunk" priority="13" numLanes="2" speed="27.78" disallow="pedestrian bicycle tram rail_urban rail rail_electric rail_fast ship" oneway="0"/>
    <type id="highway.trunk_link" priority="8" numLanes="1" speed="22.22" disallow="pedestrian bicycle tram rail_urban rail rail_electric rail_fast ship" oneway="0"/>
    <type id="highway.unclassified" priority="4" numLanes="1" speed="13.89" disallow="tram rail_urban rail rail_electric rail_fast ship" oneway="0"/>
    <type id="highway.unsurfaced" priority="1" numLanes="1" speed="8.33" disallow="tram rail_urban rail rail_electric rail_fast ship" oneway="0"/>
    <type id="railway.highspeed" priority="21" numLanes="1" speed="69.44" allow="rail_fast" oneway="1"/>
    <type id="railway.light_rail" priority="19" numLanes="1" speed="27.78" allow="rail_urban" oneway="1"/>
    <type id="railway.preserved" priority="16" numLanes="1" speed="27.78" allow="rail" oneway="1"/>
    <type id="railway.rail" priority="20" numLanes="1" speed="44.44" allow="rail" oneway="1"/>
    <type id="railway.subway" priority="18" numLanes="1" speed="27.78" allow="rail_urban" oneway="1"/>
    <type id="railway.tram" priority="17" numLanes="1" speed="13.89" allow="tram" oneway="1"/>

    <edge id=":103_0" function="internal">
        <lane id=":103_0_0" index="0" disallow="tram rail_urban rail rail_electric rail_fast ship" speed="6.26" length="9.05" shape="772.47,1517.09 771.86,1514.64 770.61,1513.08 768.73,1512.40 766.22,1512.60"/>
    </edge>
    <edge id=":103_1" function="internal">
        <lane id=":103_1_0" index="0" disallow="tram rail_urban rail rail_electric rail_fast ship" speed="7.80" length="14.68" shape="772.47,1517.09 772.64,1513.00 774.11,1510.10 776.87,1508.40 780.92,1507.89"/>
    </edge>
    <edge id=":103_2" function="internal">
        <lane id=":103_2_0" index="0" disallow="tram rail_urban rail rail_electric rail_fast ship" speed="3.65" length="4.67" shape="772.47,1517.09 773.14,1515.82 773.90,1515.34 774.74,1515.65 775.65,1516.77"/>
    </edge>
    <edge id=":103_3" function="internal">
        <lane id=":103_3_0" index="0" disallow="tram rail_urban rail rail_electric rail_fast ship" speed="6.27" length="9.05" shape="780.87,1511.08 778.37,1511.40 776.66,1512.45 775.76,1514.24 775.65,1516.77"/>
    </edge>
    <edge id=":103_4" function="internal">
        <lane id=":103_4_0" index="0" disallow="tram rail_urban rail rail_electric rail_fast ship" speed="13.89" length="14.76" shape="780.87,1511.08 777.15,1511.13 773.50,1511.39 769.86,1511.89 766.22,1512.60"/>
    </edge>
    <edge id=":103_5" function="internal">
        <lane id=":103_5_0" index="0" disallow="tram rail_urban rail rail_electric rail_fast ship" speed="3.65" length="1.44" shape="780.87,1511.08 779.68,1510.26"/>
    </edge>
    <edge id=":103_9" function="internal">
        <lane id=":103_9_0" index="0" disallow="tram rail_urban rail rail_electric rail_fast ship" speed="3.65" length="3.23" shape="779.68,1510.26 779.30,1509.46 779.71,1508.66 780.92,1507.89"/>
    </edge>
    <edge id=":103_6" function="internal">
        <lane id=":103_6_0" index="0" disallow="tram rail_urban rail rail_electric rail_fast ship" speed="13.89" length="15.53" shape="765.51,1509.48 769.27,1508.75 773.17,1508.23 777.09,1507.94 780.92,1507.89"/>
    </edge>
    <edge id=":103_7" function="internal">
        <lane id=":103_7_0" index="0" disallow="tram rail_urban rail rail_electric rail_fast ship" speed="7.80" length="4.45" shape="765.51,1509.48 769.59,1509.15 769.92,1509.27"/>
    </edge>
    <edge id=":103_8" function="internal">
        <lane id=":103_8_0" index="0" disallow="tram rail_urban rail rail_electric rail_fast ship" speed="3.65" length="1.44" shape="765.51,1509.48 766.85,1510.00"/>
    </edge>
    <edge id=":103_10" function="internal">
        <lane id=":103_10_0" index="0" disallow="tram rail_urban rail rail_electric rail_fast ship" speed="7.80" length="10.23" shape="769.92,1509.27 772.64,1510.26 774.66,1512.79 775.65,1516.77"/>
    </edge>
    <edge id=":103_11" function="internal">
        <lane id=":103_11_0" index="0" disallow="tram rail_urban rail rail_electric rail_fast ship" speed="3.65" length="3.23" shape="766.85,1510.00 767.42,1510.69 767.21,1511.56 766.22,1512.60"/>
    </edge>
    <edge id=":104_0" function="internal">
        <lane id=":104_0_0" index="0" disallow="tram rail_urban rail rail_electric rail_fast ship" speed="13.89" length="15.96" shape="781.39,1589.47 779.39,1586.16 777.80,1582.40 776.34,1578.57 774.69,1575.02"/>
    </edge>
    <edge id=":104_1" function="internal">
        <lane id=":104_1_0" index="0" disallow="tram rail_urban rail rail_electric rail_fast ship" speed="13.89" length="16.08" shape="781.39,1589.47 779.68,1586.07 778.86,1582.07 778.53,1577.87 778.26,1573.90"/>
    </edge>
    <edge id=":104_2" function="internal">
        <lane id=":104_2_0" index="0" disallow="tram rail_urban rail rail_electric rail_fast ship" speed="3.65" length="1.44" shape="781.39,1589.47 781.28,1588.03"/>
    </edge>
    <edge id=":104_6" function="internal">
        <lane id=":104_6_0" index="0" disallow="tram rail_urban rail rail_electric rail_fast ship" speed="3.65" length="3.23" shape="781.28,1588.03 781.67,1587.22 782.54,1587.04 783.91,1587.49"/>
    </edge>
    <edge id=":104_3" function="internal">
        <lane id=":104_3_0" index="0" disallow="tram rail_urban rail rail_electric rail_fast ship" speed="13.89" length="14.37" shape="781.44,1573.57 781.61,1577.29 781.71,1580.92 782.30,1584.36 783.91,1587.49"/>
    </edge>
    <edge id=":104_4" function="internal">
        <lane id=":104_4_0" index="0" disallow="tram rail_urban rail rail_electric rail_fast ship" speed="6.72" length="7.04" shape="781.44,1573.57 781.65,1579.85 781.34,1580.54"/>
    </edge>
    <edge id=":104_5" function="internal">
        <lane id=":104_5_0" index="0" disallow="tram rail_urban rail rail_electric rail_fast ship" speed="3.65" length="1.44" shape="781.44,1573.57 780.77,1574.85"/>
    </edge>
    <edge id=":104_7" function="internal">
        <lane id=":104_7_0" index="0" disallow="tram rail_urban rail rail_electric rail_fast ship" speed="6.72" length="11.24" shape="781.34,1580.54 780.60,1582.19 778.28,1580.58 774.69,1575.02"/>
    </edge>
    <edge id=":104_8" function="internal">
        <lane id=":104_8_0" index="0" disallow="tram rail_urban rail rail_electric rail_fast ship" speed="3.65" length="3.23" shape="780.77,1574.85 780.01,1575.33 779.18,1575.01 778.26,1573.90"/>
    </edge>
    <edge id=":105_0" function="internal">
        <lane id=":105_0_0" index="0" disallow="tram rail_urban rail rail_electric rail_fast ship" speed="13.89" length="8.13" shape="823.48,1643.41 818.55,1636.95"/>
    </edge>
    <edge id=":105_1" function="internal">
        <lane id=":105_1_0" index="0" disallow="tram rail_urban rail rail_electric rail_fast ship" speed="3.65" length="1.44" shape="823.48,1643.41 823.45,1641.97"/>
    </edge>
    <edge id=":105_6" function="internal">
        <lane id=":105_6_0" index="0" disallow="tram rail_urban rail rail_electric rail_fast ship" speed="3.65" length="3.23" shape="823.45,1641.97 823.87,1641.18 824.76,1641.05 826.10,1641.58"/>
    </edge>
    <edge id=":105_2" function="internal">
        <lane id=":105_2_0" index="0" disallow="tram rail_urban rail rail_electric rail_fast ship" speed="8.61" length="7.76" shape="825.51,1634.07 825.06,1636.34 825.01,1638.35 825.36,1640.10 826.10,1641.58"/>
    </edge>
    <edge id=":105_3" function="internal">
        <lane id=":105_3_0" index="0" disallow="tram rail_urban rail rail_electric rail_fast ship" speed="5.91" length="10.84" shape="825.51,1634.07 824.19,1637.53 822.59,1639.16 820.71,1638.97 818.55,1636.95"/>
    </edge>
    <edge id=":105_4" function="internal">
        <lane id=":105_4_0" index="0" disallow="tram rail_urban rail rail_electric rail_fast ship" speed="13.89" length="8.30" shape="821.07,1634.97 826.10,1641.58"/>
    </edge>
    <edge id=":105_5" function="internal">
        <lane id=":105_5_0" index="0" disallow="tram rail_urban rail rail_electric rail_fast ship" speed="3.65" length="1.44" shape="821.07,1634.97 821.18,1636.41"/>
    </edge>
    <edge id=":105_7" function="internal">
        <lane id=":105_7_0" index="0" disallow="tram rail_urban rail rail_electric rail_fast ship" speed="3.65" length="3.23" shape="821.18,1636.41 820.80,1637.22 819.92,1637.40 818.55,1636.95"/>
    </edge>
    <edge id=":106_0" function="internal">
        <lane id=":106_0_0" index="0" disallow="tram rail_urban rail rail_electric rail_fast ship" speed="6.34" length="9.04" shape="902.10,1757.72 900.48,1755.81 898.66,1754.93 896.66,1755.09 894.45,1756.29"/>
    </edge>
    <edge id=":106_1" function="internal">
        <lane id=":106_1_0" index="0" disallow="tram rail_urban rail rail_electric rail_fast ship" speed="13.89" length="14.45" shape="902.10,1757.72 894.32,1745.55"/>
    </edge>
    <edge id=":106_2" function="internal">
        <lane id=":106_2_0" index="0" disallow="tram rail_urban rail rail_electric rail_fast ship" speed="3.65" length="1.44" shape="902.10,1757.72 902.14,1756.28"/>
    </edge>
    <edge id=":106_12" function="internal">
        <lane id=":106_12_0" index="0" disallow="tram rail_urban rail rail_electric rail_fast ship" speed="3.65" length="3.23" shape="902.14,1756.28 902.60,1755.52 903.49,1755.43 904.81,1756.02"/>
    </edge>
    <edge id=":106_3" function="internal">
        <lane id=":106_3_0" index="0" disallow="tram rail_urban rail rail_electric rail_fast ship" speed="7.04" length="9.82" shape="906.13,1747.31 904.35,1749.20 903.54,1751.28 903.69,1753.56 904.81,1756.02"/>
    </edge>
    <edge id=":106_4" function="internal">
        <lane id=":106_4_0" index="0" disallow="tram rail_urban rail rail_electric rail_fast ship" speed="22.22" length="14.73" shape="906.13,1747.31 894.45,1756.29"/>
    </edge>
    <edge id=":106_5" function="internal">
        <lane id=":106_5_0" index="0" disallow="tram rail_urban rail rail_electric rail_fast ship" speed="7.68" length="10.10" shape="906.13,1747.31 902.76,1749.29 899.67,1749.66 896.85,1748.41"/>
    </edge>
    <edge id=":106_13" function="internal">
        <lane id=":106_13_0" index="0" disallow="tram rail_urban rail rail_electric rail_fast ship" speed="7.68" length="3.82" shape="896.85,1748.41 894.32,1745.55"/>
    </edge>
    <edge id=":106_6" function="internal">
        <lane id=":106_6_0" index="0" disallow="tram rail_urban rail rail_electric rail_fast ship" speed="13.89" length="14.51" shape="897.00,1743.80 904.81,1756.02"/>
    </edge>
    <edge id=":106_7" function="internal">
        <lane id=":106_7_0" index="0" disallow="tram rail_urban rail rail_electric rail_fast ship" speed="8.22" length="4.03" shape="897.00,1743.80 898.59,1747.25 898.59,1747.48"/>
    </edge>
    <edge id=":106_8" function="internal">
        <lane id=":106_8_0" index="0" disallow="tram rail_urban rail rail_electric rail_fast ship" speed="3.65" length="1.44" shape="897.00,1743.80 896.99,1745.24"/>
    </edge>
    <edge id=":106_14" function="internal">
        <lane id=":106_14_0" index="0" disallow="tram rail_urban rail rail_electric rail_fast ship" speed="8.22" length="10.31" shape="898.59,1747.48 898.69,1750.48 897.31,1753.49 894.45,1756.29"/>
    </edge>
    <edge id=":106_15" function="internal">
        <lane id=":106_15_0" index="0" disallow="tram rail_urban rail rail_electric rail_fast ship" speed="3.65" length="3.23" shape="896.99,1745.24 896.53,1746.01 895.65,1746.11 894.32,1745.55"/>
    </edge>
    <edge id=":106_9" function="internal">
        <lane id=":106_9_0" index="0" disallow="tram rail_urban rail rail_electric rail_fast ship" speed="6.77" length="9.41" shape="892.54,1753.72 894.45,1751.87 895.38,1749.89 895.34,1747.78 894.32,1745.55"/>
    </edge>
    <edge id=":106_10" function="internal">
        <lane id=":106_10_0" index="0" disallow="tram rail_urban rail rail_electric rail_fast ship" speed="7.86" length="4.02" shape="892.54,1753.72 896.08,1751.80"/>
    </edge>
    <edge id=":106_11" function="internal">
        <lane id=":106_11_0" index="0" disallow="tram rail_urban rail rail_electric rail_fast ship" speed="3.65" length="1.44" shape="892.54,1753.72 893.98,1753.64"/>
    </edge>
    <edge id=":106_16" function="internal">
        <lane id=":106_16_0" index="0" disallow="tram rail_urban rail rail_electric rail_fast ship" speed="7.86" length="10.49" shape="896.08,1751.80 899.30,1751.55 902.21,1752.95 904.81,1756.02"/>
    </edge>
    <edge id=":106_17" function="internal">
        <lane id=":106_17_0" index="0" disallow="tram rail_urban rail rail_electric rail_fast ship" speed="3.65" length="3.23" shape="893.98,1753.64 894.78,1754.05 894.94,1754.93 894.45,1756.29"/>
    </edge>
    <edge id=":107_0" function="internal">
        <lane id=":107_0_0" index="0" disallow="tram rail_urban rail rail_electric rail_fast ship" speed="13.89" length="2.02" shape="1020.39,1922.00 1021.55,1923.65"/>
    </edge>
    <edge id=":109_0" function="internal">
        <lane id=":109_0_0" index="0" disallow="tram rail_urban rail rail_electric rail_fast ship" speed="22.22" length="0.10" shape="918.56,1737.45 918.47,1737.51"/>
    </edge>
    <edge id=":11_0" function="internal">
        <lane id=":11_0_0" index="0" disallow="tram rail_urban rail rail_electric rail_fast ship" speed="3.65" length="4.67" shape="445.99,2050.65 445.77,2049.23 446.09,2048.39 446.95,2048.14 448.35,2048.49"/>
    </edge>
    <edge id=":12_0" function="internal">
        <lane id=":12_0_0" index="0" disallow="tram rail_urban rail rail_electric rail_fast ship" speed="27.78" length="0.30" shape="520.90,2117.29 520.67,2117.09"/>
    </edge>
    <edge id=":12_1" function="internal">
        <lane id=":12_1_0" index="0" disallow="tram rail_urban rail rail_electric rail_fast ship" speed="3.65" length="2.34" shape="520.90,2117.29 520.50,2115.90 520.71,2115.03"/>
    </edge>
    <edge id=":12_4" function="internal">
        <lane id=":12_4_0" index="0" disallow="tram rail_urban rail rail_electric rail_fast ship" speed="3.65" length="2.34" shape="520.71,2115.03 521.54,2114.68 522.97,2114.85"/>
    </edge>
    <edge id=":12_2" function="internal">
        <lane id=":12_2_0" index="0" disallow="tram rail_urban rail rail_electric rail_fast ship" speed="27.78" length="0.30" shape="522.74,2114.65 522.97,2114.85"/>
    </edge>
    <edge id=":12_3" function="internal">
        <lane id=":12_3_0" index="0" disallow="tram rail_urban rail rail_electric rail_fast ship" speed="3.65" length="2.34" shape="522.74,2114.65 523.14,2116.04 522.93,2116.91"/>
    </edge>
    <edge id=":12_5" function="internal">
        <lane id=":12_5_0" index="0" disallow="tram rail_urban rail rail_electric rail_fast ship" speed="3.65" length="2.34" shape="522.93,2116.91 522.10,2117.26 520.67,2117.09"/>
    </edge>
    <edge id=":127_0" function="internal">
        <lane id=":127_0_0" index="0" disallow="tram rail_urban rail rail_electric rail_fast ship" speed="3.65" length="4.67" shape="941.67,717.95 942.47,716.75 943.27,716.35 944.07,716.75 944.87,717.95"/>
    </edge>
    <edge id=":129_0" function="internal">
        <lane id=":129_0_0" index="0" disallow="tram rail_urban rail rail_electric rail_fast ship" speed="13.89" length="9.04" shape="1027.85,1574.30 1019.42,1571.02"/>
    </edge>
    <edge id=":129_1" function="internal">
        <lane id=":129_1_0" index="0" disallow="tram rail_urban rail rail_electric rail_fast ship" speed="3.65" length="1.44" shape="1027.85,1574.30 1027.03,1573.11"/>
    </edge>
    <edge id=":129_6" function="internal">
        <lane id=":129_6_0" index="0" disallow="tram rail_urban rail rail_electric rail_fast ship" speed="3.65" length="3.23" shape="1027.03,1573.11 1026.95,1572.22 1027.62,1571.62 1029.03,1571.32"/>
    </edge>
    <edge id=":129_2" function="internal">
        <lane id=":129_2_0" index="0" disallow="tram rail_urban rail rail_electric rail_fast ship" speed="13.89" length="9.11" shape="1020.54,1568.03 1029.03,1571.32"/>
    </edge>
    <edge id=":129_3" function="internal">
        <lane id=":129_3_0" index="0" disallow="tram rail_urban rail rail_electric rail_fast ship" speed="3.65" length="1.44" shape="1020.54,1568.03 1021.38,1569.19"/>
    </edge>
    <edge id=":129_7" function="internal">
        <lane id=":129_7_0" index="0" disallow="tram rail_urban rail rail_electric rail_fast ship" speed="3.65" length="3.23" shape="1021.38,1569.19 1021.48,1570.08 1020.83,1570.69 1019.42,1571.02"/>
    </edge>
    <edge id=":129_4" function="internal">
        <lane id=":129_4_0" index="0" disallow="tram rail_urban rail rail_electric rail_fast ship" speed="7.10" length="7.98" shape="1023.06,1577.54 1022.84,1575.20 1022.16,1573.33 1021.02,1571.94 1019.42,1571.02"/>
    </edge>
    <edge id=":129_5" function="internal">
        <lane id=":129_5_0" index="0" disallow="tram rail_urban rail rail_electric rail_fast ship" speed="6.31" length="10.83" shape="1023.06,1577.54 1023.44,1573.93 1024.57,1571.70 1026.43,1570.83 1029.03,1571.32"/>
    </edge>
    <edge id=":13_0" function="internal">
        <lane id=":13_0_0" index="0" disallow="tram rail_urban rail rail_electric rail_fast ship" speed="6.63" length="9.19" shape="627.07,1980.16 624.52,1980.14 622.56,1980.90 621.20,1982.45 620.42,1984.80"/>
    </edge>
    <edge id=":13_1" function="internal">
        <lane id=":13_1_0" index="0" disallow="tram rail_urban rail rail_electric rail_fast ship" speed="3.65" length="1.44" shape="627.07,1980.16 626.00,1979.19"/>
    </edge>
    <edge id=":13_6" function="internal">
        <lane id=":13_6_0" index="0" disallow="tram rail_urban rail rail_electric rail_fast ship" speed="3.65" length="3.23" shape="626.00,1979.19 625.72,1978.34 626.23,1977.61 627.53,1976.99"/>
    </edge>
    <edge id=":13_2" function="internal">
        <lane id=":13_2_0" index="0" disallow="tram rail_urban rail rail_electric rail_fast ship" speed="6.44" length="9.03" shape="622.94,1970.61 622.85,1973.10 623.59,1974.99 625.15,1976.29 627.53,1976.99"/>
    </edge>
    <edge id=":13_3" function="internal">
        <lane id=":13_3_0" index="0" disallow="tram rail_urban rail rail_electric rail_fast ship" speed="13.89" length="14.41" shape="622.94,1970.61 620.42,1984.80"/>
    </edge>
    <edge id=":13_4" function="internal">
        <lane id=":13_4_0" index="0" disallow="tram rail_urban rail rail_electric rail_fast ship" speed="13.89" length="11.77" shape="616.36,1973.90 619.11,1975.52 621.61,1976.28 624.27,1976.62 627.53,1976.99"/>
    </edge>
    <edge id=":13_5" function="internal">
        <lane id=":13_5_0" index="0" disallow="tram rail_urban rail rail_electric rail_fast ship" speed="9.14" length="8.19" shape="616.36,1973.90 618.60,1976.02 620.02,1978.55 620.47,1980.71"/>
    </edge>
    <edge id=":13_7" function="internal">
        <lane id=":13_7_0" index="0" disallow="tram rail_urban rail rail_electric rail_fast ship" speed="9.14" length="4.11" shape="620.47,1980.71 620.63,1981.47 620.42,1984.80"/>
    </edge>
    <edge id=":130_0" function="internal">
        <lane id=":130_0_0" index="0" disallow="tram rail_urban rail rail_electric rail_fast ship" speed="22.22" length="14.17" shape="1028.66,1661.02 1017.05,1669.15"/>
    </edge>
    <edge id=":130_1" function="internal">
        <lane id=":130_1_0" index="0" disallow="tram rail_urban rail rail_electric rail_fast ship" speed="5.58" length="9.37" shape="1028.66,1661.02 1026.13,1662.38 1024.32,1662.33 1023.24,1660.88 1022.88,1658.03"/>
    </edge>
    <edge id=":130_2" function="internal">
        <lane id=":130_2_0" index="0" disallow="tram rail_urban rail rail_electric rail_fast ship" speed="5.59" length="9.35" shape="1022.84,1672.19 1022.49,1669.35 1021.41,1667.90 1019.59,1667.83 1017.05,1669.15"/>
    </edge>
    <edge id=":130_3" function="internal">
        <lane id=":130_3_0" index="0" disallow="tram rail_urban rail rail_electric rail_fast ship" speed="13.89" length="14.16" shape="1022.84,1672.19 1022.88,1658.03"/>
    </edge>
    <edge id=":131_0" function="internal">
        <lane id=":131_0_0" index="0" disallow="tram rail_urban rail rail_electric rail_fast ship" speed="6.28" length="9.04" shape="1016.78,1778.62 1019.30,1778.55 1021.10,1777.68 1022.18,1775.99 1022.55,1773.50"/>
    </edge>
    <edge id=":131_1" function="internal">
        <lane id=":131_1_0" index="0" disallow="tram rail_urban rail rail_electric rail_fast ship" speed="13.89" length="11.58" shape="1016.78,1778.62 1028.28,1779.96"/>
    </edge>
    <edge id=":131_2" function="internal">
        <lane id=":131_2_0" index="0" disallow="tram rail_urban rail rail_electric rail_fast ship" speed="13.89" length="11.58" shape="1022.49,1785.08 1022.55,1773.50"/>
    </edge>
    <edge id=":131_3" function="internal">
        <lane id=":131_3_0" index="0" disallow="tram rail_urban rail rail_electric rail_fast ship" speed="6.28" length="4.28" shape="1022.49,1785.08 1022.87,1782.59 1023.83,1781.10"/>
    </edge>
    <edge id=":131_4" function="internal">
        <lane id=":131_4_0" index="0" disallow="tram rail_urban rail rail_electric rail_fast ship" speed="6.28" length="4.76" shape="1023.83,1781.10 1023.96,1780.90 1025.76,1780.03 1028.28,1779.96"/>
    </edge>
    <edge id=":136_0" function="internal">
        <lane id=":136_0_0" index="0" disallow="tram rail_urban rail rail_electric rail_fast ship" speed="27.78" length="0.30" shape="1449.92,1550.98 1449.68,1550.81"/>
    </edge>
    <edge id=":137_0" function="internal">
        <lane id=":137_0_0" index="0" disallow="tram rail_urban rail rail_electric rail_fast ship" speed="22.22" length="11.17" shape="1451.19,1607.74 1440.02,1607.72"/>
    </edge>
    <edge id=":137_1" function="internal">
        <lane id=":137_1_0" index="0" disallow="tram rail_urban rail rail_electric rail_fast ship" speed="3.65" length="1.44" shape="1451.19,1607.74 1449.99,1606.95"/>
    </edge>
    <edge id=":137_6" function="internal">
        <lane id=":137_6_0" index="0" disallow="tram rail_urban rail rail_electric rail_fast ship" speed="3.65" length="3.23" shape="1449.99,1606.95 1449.58,1606.15 1449.97,1605.35 1451.16,1604.54"/>
    </edge>
    <edge id=":137_2" function="internal">
        <lane id=":137_2_0" index="0" disallow="tram rail_urban rail rail_electric rail_fast ship" speed="22.22" length="11.10" shape="1440.06,1604.52 1451.16,1604.54"/>
    </edge>
    <edge id=":137_3" function="internal">
        <lane id=":137_3_0" index="0" disallow="tram rail_urban rail rail_electric rail_fast ship" speed="3.65" length="1.44" shape="1440.06,1604.52 1441.25,1605.34"/>
    </edge>
    <edge id=":137_7" function="internal">
        <lane id=":137_7_0" index="0" disallow="tram rail_urban rail rail_electric rail_fast ship" speed="3.65" length="3.23" shape="1441.25,1605.34 1441.64,1606.14 1441.23,1606.94 1440.02,1607.72"/>
    </edge>
    <edge id=":137_4" function="internal">
        <lane id=":137_4_0" index="0" disallow="tram rail_urban rail rail_electric rail_fast ship" speed="6.38" length="9.04" shape="1445.31,1613.48 1445.13,1610.98 1444.19,1609.19 1442.49,1608.11 1440.02,1607.72"/>
    </edge>
    <edge id=":137_5" function="internal">
        <lane id=":137_5_0" index="0" disallow="tram rail_urban rail rail_electric rail_fast ship" speed="7.57" length="11.78" shape="1445.31,1613.48 1445.92,1609.58 1447.10,1606.80 1448.84,1605.11 1451.16,1604.54"/>
    </edge>
    <edge id=":138_0" function="internal">
        <lane id=":138_0_0" index="0" disallow="tram rail_urban rail rail_electric rail_fast ship" speed="8.94" length="10.66" shape="1435.73,1828.12 1425.15,1826.80"/>
    </edge>
    <edge id=":138_1" function="internal">
        <lane id=":138_1_0" index="0" disallow="tram rail_urban rail rail_electric rail_fast ship" speed="6.56" length="8.75" shape="1435.73,1828.12 1433.41,1827.48 1431.80,1826.28 1430.91,1824.51 1430.72,1822.16"/>
    </edge>
    <edge id=":138_2" function="internal">
        <lane id=":138_2_0" index="0" disallow="tram rail_urban rail rail_electric rail_fast ship" speed="6.71" length="8.85" shape="1430.34,1832.81 1430.03,1830.41 1429.06,1828.61 1427.43,1827.41 1425.15,1826.80"/>
    </edge>
    <edge id=":138_3" function="internal">
        <lane id=":138_3_0" index="0" disallow="tram rail_urban rail rail_electric rail_fast ship" speed="8.94" length="10.66" shape="1430.34,1832.81 1430.72,1822.16"/>
    </edge>
    <edge id=":14_0" function="internal">