<?xml version='1.0' encoding='utf-8'?>
<routes>
	<vType accel="3.0" decel="6.0" id="CarDefault" length="5.0" minGap="2.5" maxSpeed="50.0" sigma="0.5" />
	<route id="sr1068" edges="280 65 945 946 943 944 811 812 795 796 334 342 587 969 341 10 9 232 333 988 209 831 832" fromJunction="316" toJunction="241" />
	<route id="sr1069" edges="1058 1023 1024 997 707 787 788 863 853 633 634 635 636 864 865 1012 758 759 760" fromJunction="388" toJunction="87" />
	<route id="r16747" edges="280 65 945 946 943 942 708 483 710 874 485 875 367 471 6 407 406 742 505 213 212 211 411 410 984 985 989 990 209 831 832" fromJunction="316" toJunction="241" />
	<route id="r16748" edges="897 332 331 56 55 54 53 52 558 771 772 615 616 123 10 9 232 333 988 209 831 832" fromJunction="315" toJunction="241" />
	<route id="sr1067" edges="897 332 331 428 427 426 425 424 423 400 399 404 403 124 123 10 9 232 333 988 209 831 832" fromJunction="315" toJunction="241" />
	<route id="sr1066" edges="954 658 159 161 175 174 861 862 906 907 908 909 629 630 631 506 507 508 509 510 892 893 503 740 1009 505 213 212 211 411 410 8" fromJunction="77" toJunction="357" />
	<vehicle id="v0" depart="0.0" route="sr1066" type="CarDefault" departLane="random" />
	<vehicle id="v128" depart="0.0" route="sr1067" type="CarDefault" departLane="random" />
	<vehicle id="v425" depart="0.0" route="sr1069" type="CarDefault" departLane="random" />
	<vehicle id="v129" depart="3.75" route="sr1067" type="CarDefault" departLane="random" />
	<vehicle id="v1" depart="4.72" route="sr1066" type="CarDefault" departLane="random" />
	<vehicle id="v426" depart="6.52" route="sr1069" type="CarDefault" departLane="random" />
	<vehicle id="v290" depart="7" route="sr1068" type="CarDefault" departLane="random" />
	<vehicle id="v130" depart="7.5" route="sr1067" type="CarDefault" departLane="random" />
	<vehicle id="v289" depart="8" route="sr1068" type="CarDefault" departLane="random" />
	<vehicle id="v2" depart="9.45" route="sr1066" type="CarDefault" departLane="random" />
	<vehicle id="v131" depart="11.25" route="sr1067" type="CarDefault" departLane="random" />
	<vehicle id="v427" depart="13.04" route="sr1069" type="CarDefault" departLane="random" />
	<vehicle id="v3" depart="14.17" route="sr1066" type="CarDefault" departLane="random" />
	<vehicle id="v132" depart="15.0" route="sr1067" type="CarDefault" departLane="random" />
	<vehicle id="v291" depart="18" route="sr1068" type="CarDefault" departLane="random" />
	<vehicle id="v292" depart="18" route="sr1068" type="CarDefault" departLane="random" />
	<vehicle id="v133" depart="18.75" route="sr1067" type="CarDefault" departLane="random" />
	<vehicle id="v4" depart="18.9" route="sr1066" type="CarDefault" departLane="random" />
	<vehicle id="v428" depart="19.57" route="sr1069" type="CarDefault" departLane="random" />
	<vehicle id="v134" depart="22.5" route="sr1067" type="CarDefault" departLane="random" />
	<vehicle id="v293" depart="23" route="sr1068" type="CarDefault" departLane="random" />
	<vehicle id="v5" depart="23.62" route="sr1066" type="CarDefault" departLane="random" />
	<vehicle id="v429" depart="26.09" route="sr1069" type="CarDefault" departLane="random" />
	<vehicle id="v135" depart="26.25" route="sr1067" type="CarDefault" departLane="random" />
	<vehicle id="v6" depart="28.35" route="sr1066" type="CarDefault" departLane="random" />
	<vehicle id="v294" depart="29" route="sr1068" type="CarDefault" departLane="random" />
	<vehicle id="v136" depart="30.0" route="sr1067" type="CarDefault" departLane="random" />
	<vehicle id="v296" depart="31" route="sr1068" type="CarDefault" departLane="random" />
	<vehicle id="v430" depart="32.61" route="sr1069" type="CarDefault" departLane="random" />
	<vehicle id="v7" depart="33.07" route="sr1066" type="CarDefault" departLane="random" />
	<vehicle id="v137" depart="33.75" route="sr1067" type="CarDefault" departLane="random" />
	<vehicle id="v295" depart="35" route="sr1068" type="CarDefault" departLane="random" />
	<vehicle id="v138" depart="37.5" route="sr1067" type="CarDefault" departLane="random" />
	<vehicle id="v8" depart="37.8" route="sr1066" type="CarDefault" departLane="random" />
	<vehicle id="v431" depart="39.13" route="sr1069" type="CarDefault" departLane="random" />
	<vehicle id="v298" depart="41" route="sr1068" type="CarDefault" departLane="random" />
	<vehicle id="v139" depart="41.25" route="sr1067" type="CarDefault" departLane="random" />
	<vehicle id="v300" depart="42" route="sr1068" type="CarDefault" departLane="random" />
	<vehicle id="v9" depart="42.52" route="sr1066" type="CarDefault" departLane="random" />
	<vehicle id="v299" depart="43" route="sr1068" type="CarDefault" departLane="random" />
	<vehicle id="v140" depart="45.0" route="sr1067" type="CarDefault" departLane="random" />
	<vehicle id="v432" depart="45.65" route="sr1069" type="CarDefault" departLane="random" />
	<vehicle id="v10" depart="47.24" route="sr1066" type="CarDefault" departLane="random" />
	<vehicle id="v141" depart="48.75" route="sr1067" type="CarDefault" departLane="random" />
	<vehicle id="v11" depart="51.97" route="sr1066" type="CarDefault" departLane="random" />
	<vehicle id="v433" depart="52.17" route="sr1069" type="CarDefault" departLane="random" />
	<vehicle id="v142" depart="52.5" route="sr1067" type="CarDefault" departLane="random" />
	<vehicle id="v301" depart="53" route="sr1068" type="CarDefault" departLane="random" />
	<vehicle id="v297" depart="55" route="sr1068" type="CarDefault" departLane="random" />
	<vehicle id="v143" depart="56.25" route="sr1067" type="CarDefault" departLane="random" />
	<vehicle id="v12" depart="56.69" route="sr1066" type="CarDefault" departLane="random" />
	<vehicle id="v434" depart="58.7" route="sr1069" type="CarDefault" departLane="random" />
	<vehicle id="v144" depart="60.0" route="sr1067" type="CarDefault" departLane="random" />
	<vehicle id="v13" depart="61.42" route="sr1066" type="CarDefault" departLane="random" />
	<vehicle id="v145" depart="63.75" route="sr1067" type="CarDefault" departLane="random" />
	<vehicle id="v304" depart="65" route="sr1068" type="CarDefault" departLane="random" />
	<vehicle id="v435" depart="65.22" route="sr1069" type="CarDefault" departLane="random" />
	<vehicle id="v14" depart="66.14" route="sr1066" type="CarDefault" departLane="random" />
	<vehicle id="v303" depart="67" route="sr1068" type="CarDefault" departLane="random" />
	<vehicle id="v146" depart="67.5" route="sr1067" type="CarDefault" departLane="random" />
	<vehicle id="v15" depart="70.87" route="sr1066" type="CarDefault" departLane="random" />
	<vehicle id="v147" depart="71.25" route="sr1067" type="CarDefault" departLane="random" />
	<vehicle id="v436" depart="71.74" route="sr1069" type="CarDefault" departLane="random" />
	<vehicle id="v148" depart="75.0" route="sr1067" type="CarDefault" departLane="random" />
	<vehicle id="v16" depart="75.59" route="sr1066" type="CarDefault" departLane="random" />
	<vehicle id="v305" depart="76" route="sr1068" type="CarDefault" departLane="random" />
	<vehicle id="v302" depart="77" route="sr1068" type="CarDefault" departLane="random" />
	<vehicle id="v437" depart="78.26" route="sr1069" type="CarDefault" departLane="random" />
	<vehicle id="v149" depart="78.75" route="sr1067" type="CarDefault" departLane="random" />
	<vehicle id="v17" depart="80.31" route="sr1066" type="CarDefault" departLane="random" />
	<vehicle id="v150" depart="82.5" route="sr1067" type="CarDefault" departLane="random" />
	<vehicle id="v438" depart="84.78" route="sr1069" type="CarDefault" departLane="random" />
	<vehicle id="v307" depart="85" route="sr1068" type="CarDefault" departLane="random" />
	<vehicle id="v18" depart="85.04" route="sr1066" type="CarDefault" departLane="random" />
	<vehicle id="v151" depart="86.25" route="sr1067" type="CarDefault" departLane="random" />
	<vehicle id="v19" depart="89.76" route="sr1066" type="CarDefault" departLane="random" />
	<vehicle id="v152" depart="90.0" route="sr1067" type="CarDefault" departLane="random" />
	<vehicle id="v439" depart="91.3" route="sr1069" type="CarDefault" departLane="random" />
	<vehicle id="v309" depart="92" route="sr1068" type="CarDefault" departLane="random" />
	<vehicle id="v153" depart="93.75" route="sr1067" type="CarDefault" departLane="random" />
	<vehicle id="v306" depart="94" route="sr1068" type="CarDefault" departLane="random" />
	<vehicle id="v308" depart="94" route="sr1068" type="CarDefault" departLane="random" />
	<vehicle id="v20" depart="94.49" route="sr1066" type="CarDefault" departLane="random" />
	<vehicle id="v154" depart="97.5" route="sr1067" type="CarDefault" departLane="random" />
	<vehicle id="v440" depart="97.83" route="sr1069" type="CarDefault" departLane="random" />
	<vehicle id="v21" depart="99.21" route="sr1066" type="CarDefault" departLane="random" />
	<vehicle id="v155" depart="101.25" route="sr1067" type="CarDefault" departLane="random" />
	<vehicle id="v22" depart="103.94" route="sr1066" type="CarDefault" departLane="random" />
	<vehicle id="v314" depart="104" route="sr1068" type="CarDefault" departLane="random" />
	<vehicle id="v441" depart="104.35" route="sr1069" type="CarDefault" departLane="random" />
	<vehicle id="v156" depart="105.0" route="sr1067" type="CarDefault" departLane="random" />
	<vehicle id="v311" depart="108" route="sr1068" type="CarDefault" departLane="random" />
	<vehicle id="v23" depart="108.66" route="sr1066" type="CarDefault" departLane="random" />
	<vehicle id="v157" depart="108.75" route="sr1067" type="CarDefault" departLane="random" />
	<vehicle id="v442" depart="110.87" route="sr1069" type="CarDefault" departLane="random" />
	<vehicle id="v310" depart="111" route="sr1068" type="CarDefault" departLane="random" />
	<vehicle id="v158" depart="112.5" route="sr1067" type="CarDefault" departLane="random" />
	<vehicle id="v313" depart="113" route="sr1068" type="CarDefault" departLane="random" />
	<vehicle id="v24" depart="113.39" route="sr1066" type="CarDefault" departLane="random" />
	<vehicle id="v312" depart="114" route="sr1068" type="CarDefault" departLane="random" />
	<vehicle id="v159" depart="116.25" route="sr1067" type="CarDefault" departLane="random" />
	<vehicle id="v443" depart="117.39" route="sr1069" type="CarDefault" departLane="random" />
	<vehicle id="v25" depart="118.11" route="sr1066" type="CarDefault" departLane="random" />
	<vehicle id="v160" depart="120.0" route="sr1067" type="CarDefault" departLane="random" />
	<vehicle id="v26" depart="122.83" route="sr1066" type="CarDefault" departLane="random" />
	<vehicle id="v161" depart="123.75" route="sr1067" type="CarDefault" departLane="random" />
	<vehicle id="v444" depart="123.91" route="sr1069" type="CarDefault" departLane="random" />
	<vehicle id="v316" depart="125" route="sr1068" type="CarDefault" departLane="random" />
	<vehicle id="v162" depart="127.5" route="sr1067" type="CarDefault" departLane="random" />
	<vehicle id="v27" depart="127.56" route="sr1066" type="CarDefault" departLane="random" />
	<vehicle id="v445" depart="130.43" route="sr1069" type="CarDefault" departLane="random" />
	<vehicle id="v315" depart="131" route="sr1068" type="CarDefault" departLane="random" />
	<vehicle id="v163" depart="131.25" route="sr1067" type="CarDefault" departLane="random" />
	<vehicle id="v317" depart="132" route="sr1068" type="CarDefault" departLane="random" />
	<vehicle id="v28" depart="132.28" route="sr1066" type="CarDefault" departLane="random" />
	<vehicle id="v318" depart="134" route="sr1068" type="CarDefault" departLane="random" />
	<vehicle id="v164" depart="135.0" route="sr1067" type="CarDefault" departLane="random" />
	<vehicle id="v319" depart="136" route="sr1068" type="CarDefault" departLane="random" />
	<vehicle id="v446" depart="136.96" route="sr1069" type="CarDefault" departLane="random" />
	<vehicle id="v29" depart="137.01" route="sr1066" type="CarDefault" departLane="random" />
	<vehicle id="v165" depart="138.75" route="sr1067" type="CarDefault" departLane="random" />
	<vehicle id="v30" depart="141.73" route="sr1066" type="CarDefault" departLane="random" />
	<vehicle id="v166" depart="142.5" route="sr1067" type="CarDefault" departLane="random" />
	<vehicle id="v447" depart="143.48" route="sr1069" type="CarDefault" departLane="random" />
	<vehicle id="v167" depart="146.25" route="sr1067" type="CarDefault" departLane="random" />
	<vehicle id="v31" depart="146.46" route="sr1066" type="CarDefault" departLane="random" />
	<vehicle id="v320" depart="147" route="sr1068" type="CarDefault" departLane="random" />
	<vehicle id="v323" depart="148" route="sr1068" type="CarDefault" departLane="random" />
	<vehicle id="v324" depart="148" route="sr1068" type="CarDefault" departLane="random" />
	<vehicle id="v168" depart="150.0" route="sr1067" type="CarDefault" departLane="random" />
	<vehicle id="v448" depart="150.0" route="sr1069" type="CarDefault" departLane="random" />
	<vehicle id="v32" depart="151.18" route="sr1066" type="CarDefault" departLane="random" />
	<vehicle id="v322" depart="152" route="sr1068" type="CarDefault" departLane="random" />
	<vehicle id="v169" depart="153.75" route="sr1067" type="CarDefault" departLane="random" />
	<vehicle id="v33" depart="155.91" route="sr1066" type="CarDefault" departLane="random" />
	<vehicle id="v449" depart="156.52" route="sr1069" type="CarDefault" departLane="random" />
	<vehicle id="v170" depart="157.5" route="sr1067" type="CarDefault" departLane="random" />
	<vehicle id="v321" depart="159" route="sr1068" type="CarDefault" departLane="random" />
	<vehicle id="v34" depart="160.63" route="sr1066" type="CarDefault" departLane="random" />
	<vehicle id="v171" depart="161.25" route="sr1067" type="CarDefault" departLane="random" />
	<vehicle id="v450" depart="163.04" route="sr1069" type="CarDefault" departLane="random" />
	<vehicle id="v172" depart="165.0" route="sr1067" type="CarDefault" departLane="random" />
	<vehicle id="v35" depart="165.35" route="sr1066" type="CarDefault" departLane="random" />
	<vehicle id="v173" depart="168.75" route="sr1067" type="CarDefault" departLane="random" />
	<vehicle id="v328" depart="169" route="sr1068" type="CarDefault" departLane="random" />
	<vehicle id="v451" depart="169.57" route="sr1069" type="CarDefault" departLane="random" />
	<vehicle id="v36" depart="170.08" route="sr1066" type="CarDefault" departLane="random" />
	<vehicle id="v326" depart="172" route="sr1068" type="CarDefault" departLane="random" />
	<vehicle id="v174" depart="172.5" route="sr1067" type="CarDefault" departLane="random" />
	<vehicle id="v37" depart="174.8" route="sr1066" type="CarDefault" departLane="random" />
	<vehicle id="v327" depart="175" route="sr1068" type="CarDefault" departLane="random" />
	<vehicle id="v452" depart="176.09" route="sr1069" type="CarDefault" departLane="random" />
	<vehicle id="v175" depart="176.25" route="sr1067" type="CarDefault" departLane="random" />
	<vehicle id="v325" depart="177" route="sr1068" type="CarDefault" departLane="random" />
	<vehicle id="v38" depart="179.53" route="sr1066" type="CarDefault" departLane="random" />
	<vehicle id="v176" depart="180.0" route="sr1067" type="CarDefault" departLane="random" />
	<vehicle id="v332" depart="180" route="sr1068" type="CarDefault" departLane="random" />
	<vehicle id="v333" depart="182" route="sr1068" type="CarDefault" departLane="random" />
	<vehicle id="v453" depart="182.61" route="sr1069" type="CarDefault" departLane="random" />
	<vehicle id="v177" depart="183.75" route="sr1067" type="CarDefault" departLane="random" />
	<vehicle id="v39" depart="184.25" route="sr1066" type="CarDefault" departLane="random" />
	<vehicle id="v178" depart="187.5" route="sr1067" type="CarDefault" departLane="random" />
	<vehicle id="v40" depart="188.98" route="sr1066" type="CarDefault" departLane="random" />
	<vehicle id="v454" depart="189.13" route="sr1069" type="CarDefault" departLane="random" />
	<vehicle id="v179" depart="191.25" route="sr1067" type="CarDefault" departLane="random" />
	<vehicle id="v329" depart="193" route="sr1068" type="CarDefault" departLane="random" />
	<vehicle id="v41" depart="193.7" route="sr1066" type="CarDefault" departLane="random" />
	<vehicle id="v180" depart="195.0" route="sr1067" type="CarDefault" departLane="random" />
	<vehicle id="v455" depart="195.65" route="sr1069" type="CarDefault" departLane="random" />
	<vehicle id="v330" depart="197" route="sr1068" type="CarDefault" departLane="random" />
	<vehicle id="v331" depart="197" route="sr1068" type="CarDefault" departLane="random" />
	<vehicle id="v42" depart="198.43" route="sr1066" type="CarDefault" departLane="random" />
	<vehicle id="v181" depart="198.75" route="sr1067" type="CarDefault" departLane="random" />
	<vehicle id="v456" depart="202.17" route="sr1069" type="CarDefault" departLane="random" />
	<vehicle id="v182" depart="202.5" route="sr1067" type="CarDefault" departLane="random" />
	<vehicle id="v43" depart="203.15" route="sr1066" type="CarDefault" departLane="random" />
	<vehicle id="v338" depart="205" route="sr1068" type="CarDefault" departLane="random" />
	<vehicle id="v183" depart="206.25" route="sr1067" type="CarDefault" departLane="random" />
	<vehicle id="v337" depart="207" route="sr1068" type="CarDefault" departLane="random" />
	<vehicle id="v44" depart="207.87" route="sr1066" type="CarDefault" departLane="random" />
	<vehicle id="v457" depart="208.7" route="sr1069" type="CarDefault" departLane="random" />
	<vehicle id="v184" depart="210.0" route="r16748" type="CarDefault" departLane="random" />
	<vehicle id="v335" depart="210" route="r16747" type="CarDefault" departLane="random" />
	<vehicle id="v336" depart="210" route="r16747" type="CarDefault" departLane="random" />
	<vehicle id="v45" depart="212.6" route="sr1066" type="CarDefault" departLane="random" />
	<vehicle id="v185" depart="213.75" route="r16748" type="CarDefault" departLane="random" />
	<vehicle id="v334" depart="215" route="r16747" type="CarDefault" departLane="random" />
	<vehicle id="v458" depart="215.22" route="sr1069" type="CarDefault" departLane="random" />
	<vehicle id="v46" depart="217.32" route="sr1066" type="CarDefault" departLane="random" />
	<vehicle id="v186" depart="217.5" route="r16748" type="CarDefault" departLane="random" />
	<vehicle id="v187" depart="221.25" route="r16748" type="CarDefault" departLane="random" />
	<vehicle id="v459" depart="221.74" route="sr1069" type="CarDefault" departLane="random" />
	<vehicle id="v47" depart="222.05" route="sr1066" type="CarDefault" departLane="random" />
	<vehicle id="v342" depart="224" route="r16747" type="CarDefault" departLane="random" />
	<vehicle id="v188" depart="225.0" route="r16748" type="CarDefault" departLane="random" />
	<vehicle id="v340" depart="225" route="r16747" type="CarDefault" departLane="random" />
	<vehicle id="v48" depart="226.77" route="sr1066" type="CarDefault" departLane="random" />
	<vehicle id="v341" depart="228" route="r16747" type="CarDefault" departLane="random" />
	<vehicle id="v460" depart="228.26" route="sr1069" type="CarDefault" departLane="random" />
	<vehicle id="v189" depart="228.75" route="r16748" type="CarDefault" departLane="random" />
	<vehicle id="v49" depart="231.5" route="sr1066" type="CarDefault" departLane="random" />
	<vehicle id="v190" depart="232.5" route="r16748" type="CarDefault" departLane="random" />
	<vehicle id="v339" depart="234" route="r16747" type="CarDefault" departLane="random" />
	<vehicle id="v461" depart="234.78" route="sr1069" type="CarDefault" departLane="random" />
	<vehicle id="v50" depart="236.22" route="sr1066" type="CarDefault" departLane="random" />
	<vehicle id="v191" depart="236.25" route="r16748" type="CarDefault" departLane="random" />
	<vehicle id="v192" depart="240.0" route="sr1067" type="CarDefault" departLane="random" />
	<vehicle id="v51" depart="240.94" route="sr1066" type="CarDefault" departLane="random" />
	<vehicle id="v462" depart="241.3" route="sr1069" type="CarDefault" departLane="random" />
	<vehicle id="v193" depart="243.75" route="sr1067" type="CarDefault" departLane="random" />
	<vehicle id="v52" depart="245.67" route="sr1066" type="CarDefault" departLane="random" />
	<vehicle id="v194" depart="247.5" route="sr1067" type="CarDefault" departLane="random" />
	<vehicle id="v463" depart="247.83" route="sr1069" type="CarDefault" departLane="random" />
	<vehicle id="v345" depart="248" route="sr1068" type="CarDefault" departLane="random" />
	<vehicle id="v344" depart="250" route="sr1068" type="CarDefault" departLane="random" />
	<vehicle id="v346" depart="250" route="sr1068" type="CarDefault" departLane="random" />
	<vehicle id="v53" depart="250.39" route="sr1066" type="CarDefault" departLane="random" />
	<vehicle id="v195" depart="251.25" route="sr1067" type="CarDefault" departLane="random" />
	<vehicle id="v343" depart="254" route="sr1068" type="CarDefault" departLane="random" />
	<vehicle id="v464" depart="254.35" route="sr1069" type="CarDefault" departLane="random" />
	<vehicle id="v196" depart="255.0" route="sr1067" type="CarDefault" departLane="random" />
	<vehicle id="v54" depart="255.12" route="sr1066" type="CarDefault" departLane="random" />
	<vehicle id="v197" depart="258.75" route="sr1067" type="CarDefault" departLane="random" />
	<vehicle id="v55" depart="259.84" route="sr1066" type="CarDefault" departLane="random" />
	<vehicle id="v465" depart="260.87" route="sr1069" type="CarDefault" departLane="random" />
	<vehicle id="v351" depart="261" route="sr1068" type="CarDefault" departLane="random" />
	<vehicle id="v348" depart="262" route="sr1068" type="CarDefault" departLane="random" />
	<vehicle id="v198" depart="262.5" route="sr1067" type="CarDefault" departLane="random" />
	<vehicle id="v56" depart="264.57" route="sr1066" type="CarDefault" departLane="random" />
	<vehicle id="v347" depart="265" route="sr1068" type="CarDefault" departLane="random" />
	<vehicle id="v199" depart="266.25" route="sr1067" type="CarDefault" departLane="random" />
	<vehicle id="v466" depart="267.39" route="sr1069" type="CarDefault" departLane="random" />
	<vehicle id="v57" depart="269.29" route="sr1066" type="CarDefault" departLane="random" />
	<vehicle id="v200" depart="270.0" route="r16748" type="CarDefault" departLane="random" />
	<vehicle id="v349" depart="273" route="r16747" type="CarDefault" departLane="random" />
	<vehicle id="v201" depart="273.75" route="r16748" type="CarDefault" departLane="random" />
	<vehicle id="v467" depart="273.91" route="sr1069" type="CarDefault" departLane="random" />
	<vehicle id="v58" depart="274.02" route="sr1066" type="CarDefault" departLane="random" />
	<vehicle id="v350" depart="276" route="r16747" type="CarDefault" departLane="random" />
	<vehicle id="v202" depart="277.5" route="r16748" type="CarDefault" departLane="random" />
	<vehicle id="v59" depart="278.74" route="sr1066" type="CarDefault" departLane="random" />
	<vehicle id="v468" depart="280.43" route="sr1069" type="CarDefault" departLane="random" />
	<vehicle id="v203" depart="281.25" route="r16748" type="CarDefault" departLane="random" />
	<vehicle id="v355" depart="282" route="r16747" type="CarDefault" departLane="random" />
	<vehicle id="v60" depart="283.46" route="sr1066" type="CarDefault" departLane="random" />
	<vehicle id="v204" depart="285.0" route="r16748" type="CarDefault" departLane="random" />
	<vehicle id="v354" depart="286" route="r16747" type="CarDefault" departLane="random" />
	<vehicle id="v469" depart="286.96" route="sr1069" type="CarDefault" departLane="random" />
	<vehicle id="v61" depart="288.19" route="sr1066" type="CarDefault" departLane="random" />
	<vehicle id="v205" depart="288.75" route="r16748" type="CarDefault" departLane="random" />
	<vehicle id="v353" depart="292" route="r16747" type="CarDefault" departLane="random" />
	<vehicle id="v206" depart="292.5" route="r16748" type="CarDefault" departLane="random" />
	<vehicle id="v62" depart="292.91" route="sr1066" type="CarDefault" departLane="random" />
	<vehicle id="v470" depart="293.48" route="sr1069" type="CarDefault" departLane="random" />
	<vehicle id="v356" depart="296" route="r16747" type="CarDefault" departLane="random" />
	<vehicle id="v207" depart="296.25" route="r16748" type="CarDefault" departLane="random" />
	<vehicle id="v63" depart="297.64" route="sr1066" type="CarDefault" departLane="random" />
	<vehicle id="v352" depart="299" route="r16747" type="CarDefault" departLane="random" />
	<vehicle id="v208" depart="300.0" route="r16748" type="CarDefault" departLane="random" />
	<vehicle id="v471" depart="300.0" route="sr1069" type="CarDefault" departLane="random" />
	<vehicle id="v360" depart="302" route="r16747" type="CarDefault" departLane="random" />
	<vehicle id="v64" depart="302.36" route="sr1066" type="CarDefault" departLane="random" />
	<vehicle id="v209" depart="303.75" route="r16748" type="CarDefault" departLane="random" />
	<vehicle id="v359" depart="305" route="r16747" type="CarDefault" departLane="random" />
	<vehicle id="v358" depart="306" route="r16747" type="CarDefault" departLane="random" />
	<vehicle id="v472" depart="306.52" route="sr1069" type="CarDefault" departLane="random" />
	<vehicle id="v65" depart="307.09" route="sr1066" type="CarDefault" departLane="random" />
	<vehicle id="v210" depart="307.5" route="r16748" type="CarDefault" departLane="random" />
	<vehicle id="v211" depart="311.25" route="r16748" type="CarDefault" departLane="random" />
	<vehicle id="v66" depart="311.81" route="sr1066" type="CarDefault" departLane="random" />
	<vehicle id="v357" depart="312" route="r16747" type="CarDefault" departLane="random" />
	<vehicle id="v473" depart="313.04" route="sr1069" type="CarDefault" departLane="random" />
	<vehicle id="v212" depart="315.0" route="r16748" type="CarDefault" departLane="random" />
	<vehicle id="v67" depart="316.54" route="sr1066" type="CarDefault" departLane="random" />
	<vehicle id="v213" depart="318.75" route="r16748" type="CarDefault" departLane="random" />
	<vehicle id="v474" depart="319.57" route="sr1069" type="CarDefault" departLane="random" />
	<vehicle id="v363" depart="321" route="r16747" type="CarDefault" departLane="random" />
	<vehicle id="v68" depart="321.26" route="sr1066" type="CarDefault" departLane="random" />
	<vehicle id="v214" depart="322.5" route="r16748" type="CarDefault" departLane="random" />
	<vehicle id="v361" depart="323" route="r16747" type="CarDefault" departLane="random" />
	<vehicle id="v69" depart="325.98" route="sr1066" type="CarDefault" departLane="random" />
	<vehicle id="v475" depart="326.09" route="sr1069" type="CarDefault" departLane="random" />
	<vehicle id="v215" depart="326.25" route="r16748" type="CarDefault" departLane="random" />
	<vehicle id="v216" depart="330.0" route="sr1067" type="CarDefault" departLane="random" />
	<vehicle id="v70" depart="330.71" route="sr1066" type="CarDefault" departLane="random" />
	<vehicle id="v364" depart="332" route="sr1068" type="CarDefault" departLane="random" />
	<vehicle id="v476" depart="332.61" route="sr1069" type="CarDefault" departLane="random" />
	<vehicle id="v362" depart="333" route="sr1068" type="CarDefault" departLane="random" />
	<vehicle id="v217" depart="333.75" route="sr1067" type="CarDefault" departLane="random" />
	<vehicle id="v71" depart="335.43" route="sr1066" type="CarDefault" departLane="random" />
	<vehicle id="v218" depart="337.5" route="sr1067" type="CarDefault" departLane="random" />
	<vehicle id="v477" depart="339.13" route="sr1069" type="CarDefault" departLane="random" />
	<vehicle id="v72" depart="340.16" route="sr1066" type="CarDefault" departLane="random" />
	<vehicle id="v219" depart="341.25" route="sr1067" type="CarDefault" departLane="random" />
	<vehicle id="v73" depart="344.88" route="sr1066" type="CarDefault" departLane="random" />
	<vehicle id="v220" depart="345.0" route="sr1067" type="CarDefault" departLane="random" />
	<vehicle id="v478" depart="345.65" route="sr1069" type="CarDefault" departLane="random" />
	<vehicle id="v369" depart="346" route="sr1068" type="CarDefault" departLane="random" />
	<vehicle id="v366" depart="348" route="sr1068" type="CarDefault" departLane="random" />
	<vehicle id="v221" depart="348.75" route="sr1067" type="CarDefault" departLane="random" />
	<vehicle id="v74" depart="349.61" route="sr1066" type="CarDefault" departLane="random" />
	<vehicle id="v479" depart="352.17" route="sr1069" type="CarDefault" departLane="random" />
	<vehicle id="v222" depart="352.5" route="sr1067" type="CarDefault" departLane="random" />
	<vehicle id="v365" depart="353" route="sr1068" type="CarDefault" departLane="random" />
	<vehicle id="v75" depart="354.33" route="sr1066" type="CarDefault" departLane="random" />
	<vehicle id="v367" depart="356" route="sr1068" type="CarDefault" departLane="random" />
	<vehicle id="v223" depart="356.25" route="sr1067" type="CarDefault" departLane="random" />
	<vehicle id="v480" depart="358.7" route="sr1069" type="CarDefault" departLane="random" />
	<vehicle id="v368" depart="359" route="sr1068" type="CarDefault" departLane="random" />
	<vehicle id="v76" depart="359.06" route="sr1066" type="CarDefault" departLane="random" />
	<vehicle id="v224" depart="360.0" route="r16748" type="CarDefault" departLane="random" />
	<vehicle id="v372" depart="360" route="r16747" type="CarDefault" departLane="random" />
	<vehicle id="v225" depart="363.75" route="r16748" type="CarDefault" departLane="random" />
	<vehicle id="v77" depart="363.78" route="sr1066" type="CarDefault" departLane="random" />
	<vehicle id="v481" depart="365.22" route="sr1069" type="CarDefault" departLane="random" />
	<vehicle id="v226" depart="367.5" route="r16748" type="CarDefault" departLane="random" />
	<vehicle id="v78" depart="368.5" route="sr1066" type="CarDefault" departLane="random" />
	<vehicle id="v227" depart="371.25" route="r16748" type="CarDefault" departLane="random" />
	<vehicle id="v482" depart="371.74" route="sr1069" type="CarDefault" departLane="random" />