<?xml version='1.0' encoding='utf-8'?>
<routes>
	<vType accel="3.0" decel="6.0" id="CarDefault" length="5.0" minGap="2.5" maxSpeed="50.0" sigma="0.5" />
	<route id="sr1065" edges="288 287 739 415 233 886 774 502 892 893 503 13 229 972 479 480 922 712 487 711 254 386 390 389 388 822" fromJunction="241" toJunction="316" />
	<route id="sr1066" edges="954 752 157 764 765 952 536 674 164 738 747 748 749 637 638 639 640 767 550 551 552 553 554 833 594 611 810 387 386 390 389 388 822" fromJunction="77" toJunction="316" />
	<route id="sr1067" edges="794 919 920 923 924 915 916 750 751 964 741 742 430 210 12 11 341 18 17 16 15 14 1026 1027 446 445 447 758 759 760" fromJunction="292" toJunction="87" />
	<route id="sr1068" edges="897 332 331 428 427 426 425 424 423 400 399 404 403 124 123 892 893 503 740 1009 505 213 212 211 411 410 8" fromJunction="315" toJunction="357" />
	<vehicle id="v0" depart="0.0" route="sr1065" type="CarDefault" departLane="random" />
	<vehicle id="v170" depart="0.0" route="sr1066" type="CarDefault" departLane="random" />
	<vehicle id="v547" depart="0.0" route="sr1068" type="CarDefault" departLane="random" />
	<vehicle id="v171" depart="3.24" route="sr1066" type="CarDefault" departLane="random" />
	<vehicle id="v172" depart="6.49" route="sr1066" type="CarDefault" departLane="random" />
	<vehicle id="v361" depart="7" route="sr1067" type="CarDefault" departLane="random" />
	<vehicle id="v1" depart="7.41" route="sr1065" type="CarDefault" departLane="random" />
	<vehicle id="v548" depart="7.41" route="sr1068" type="CarDefault" departLane="random" />
	<vehicle id="v356" depart="9" route="sr1067" type="CarDefault" departLane="random" />
	<vehicle id="v173" depart="9.73" route="sr1066" type="CarDefault" departLane="random" />
	<vehicle id="v357" depart="10" route="sr1067" type="CarDefault" departLane="random" />
	<vehicle id="v174" depart="12.97" route="sr1066" type="CarDefault" departLane="random" />
	<vehicle id="v359" depart="14" route="sr1067" type="CarDefault" departLane="random" />
	<vehicle id="v360" depart="14" route="sr1067" type="CarDefault" departLane="random" />
	<vehicle id="v2" depart="14.81" route="sr1065" type="CarDefault" departLane="random" />
	<vehicle id="v549" depart="14.81" route="sr1068" type="CarDefault" departLane="random" />
	<vehicle id="v358" depart="15" route="sr1067" type="CarDefault" departLane="random" />
	<vehicle id="v175" depart="16.22" route="sr1066" type="CarDefault" departLane="random" />
	<vehicle id="v176" depart="19.46" route="sr1066" type="CarDefault" departLane="random" />
	<vehicle id="v3" depart="22.22" route="sr1065" type="CarDefault" departLane="random" />
	<vehicle id="v550" depart="22.22" route="sr1068" type="CarDefault" departLane="random" />
	<vehicle id="v177" depart="22.7" route="sr1066" type="CarDefault" departLane="random" />
	<vehicle id="v364" depart="24" route="sr1067" type="CarDefault" departLane="random" />
	<vehicle id="v178" depart="25.95" route="sr1066" type="CarDefault" departLane="random" />
	<vehicle id="v362" depart="27" route="sr1067" type="CarDefault" departLane="random" />
	<vehicle id="v363" depart="29" route="sr1067" type="CarDefault" departLane="random" />
	<vehicle id="v179" depart="29.19" route="sr1066" type="CarDefault" departLane="random" />
	<vehicle id="v4" depart="29.63" route="sr1065" type="CarDefault" departLane="random" />
	<vehicle id="v551" depart="29.63" route="sr1068" type="CarDefault" departLane="random" />
	<vehicle id="v180" depart="32.43" route="sr1066" type="CarDefault" departLane="random" />
	<vehicle id="v181" depart="35.68" route="sr1066" type="CarDefault" departLane="random" />
	<vehicle id="v365" depart="36" route="sr1067" type="CarDefault" departLane="random" />
	<vehicle id="v5" depart="37.04" route="sr1065" type="CarDefault" departLane="random" />
	<vehicle id="v552" depart="37.04" route="sr1068" type="CarDefault" departLane="random" />
	<vehicle id="v182" depart="38.92" route="sr1066" type="CarDefault" departLane="random" />
	<vehicle id="v366" depart="40" route="sr1067" type="CarDefault" departLane="random" />
	<vehicle id="v183" depart="42.16" route="sr1066" type="CarDefault" departLane="random" />
	<vehicle id="v367" depart="43" route="sr1067" type="CarDefault" departLane="random" />
	<vehicle id="v6" depart="44.44" route="sr1065" type="CarDefault" departLane="random" />
	<vehicle id="v553" depart="44.44" route="sr1068" type="CarDefault" departLane="random" />
	<vehicle id="v184" depart="45.41" route="sr1066" type="CarDefault" departLane="random" />
	<vehicle id="v369" depart="47" route="sr1067" type="CarDefault" departLane="random" />
	<vehicle id="v185" depart="48.65" route="sr1066" type="CarDefault" departLane="random" />
	<vehicle id="v370" depart="49" route="sr1067" type="CarDefault" departLane="random" />
	<vehicle id="v7" depart="51.85" route="sr1065" type="CarDefault" departLane="random" />
	<vehicle id="v554" depart="51.85" route="sr1068" type="CarDefault" departLane="random" />
	<vehicle id="v186" depart="51.89" route="sr1066" type="CarDefault" departLane="random" />
	<vehicle id="v368" depart="52" route="sr1067" type="CarDefault" departLane="random" />
	<vehicle id="v187" depart="55.14" route="sr1066" type="CarDefault" departLane="random" />
	<vehicle id="v188" depart="58.38" route="sr1066" type="CarDefault" departLane="random" />
	<vehicle id="v8" depart="59.26" route="sr1065" type="CarDefault" departLane="random" />
	<vehicle id="v555" depart="59.26" route="sr1068" type="CarDefault" departLane="random" />
	<vehicle id="v189" depart="61.62" route="sr1066" type="CarDefault" departLane="random" />
	<vehicle id="v190" depart="64.86" route="sr1066" type="CarDefault" departLane="random" />
	<vehicle id="v9" depart="66.67" route="sr1065" type="CarDefault" departLane="random" />
	<vehicle id="v556" depart="66.67" route="sr1068" type="CarDefault" departLane="random" />
	<vehicle id="v372" depart="67" route="sr1067" type="CarDefault" departLane="random" />
	<vehicle id="v191" depart="68.11" route="sr1066" type="CarDefault" departLane="random" />
	<vehicle id="v192" depart="71.35" route="sr1066" type="CarDefault" departLane="random" />
	<vehicle id="v10" depart="74.07" route="sr1065" type="CarDefault" departLane="random" />
	<vehicle id="v557" depart="74.07" route="sr1068" type="CarDefault" departLane="random" />
	<vehicle id="v193" depart="74.59" route="sr1066" type="CarDefault" departLane="random" />
	<vehicle id="v194" depart="77.84" route="sr1066" type="CarDefault" departLane="random" />
	<vehicle id="v371" depart="78" route="sr1067" type="CarDefault" departLane="random" />
	<vehicle id="v374" depart="80" route="sr1067" type="CarDefault" departLane="random" />
	<vehicle id="v195" depart="81.08" route="sr1066" type="CarDefault" departLane="random" />
	<vehicle id="v11" depart="81.48" route="sr1065" type="CarDefault" departLane="random" />
	<vehicle id="v558" depart="81.48" route="sr1068" type="CarDefault" departLane="random" />
	<vehicle id="v196" depart="84.32" route="sr1066" type="CarDefault" departLane="random" />
	<vehicle id="v373" depart="87" route="sr1067" type="CarDefault" departLane="random" />
	<vehicle id="v197" depart="87.57" route="sr1066" type="CarDefault" departLane="random" />
	<vehicle id="v12" depart="88.89" route="sr1065" type="CarDefault" departLane="random" />
	<vehicle id="v559" depart="88.89" route="sr1068" type="CarDefault" departLane="random" />
	<vehicle id="v198" depart="90.81" route="sr1066" type="CarDefault" departLane="random" />
	<vehicle id="v375" depart="92" route="sr1067" type="CarDefault" departLane="random" />
	<vehicle id="v199" depart="94.05" route="sr1066" type="CarDefault" departLane="random" />
	<vehicle id="v13" depart="96.3" route="sr1065" type="CarDefault" departLane="random" />
	<vehicle id="v560" depart="96.3" route="sr1068" type="CarDefault" departLane="random" />
	<vehicle id="v200" depart="97.3" route="sr1066" type="CarDefault" departLane="random" />
	<vehicle id="v201" depart="100.54" route="sr1066" type="CarDefault" departLane="random" />
	<vehicle id="v30" depart="103" route="sr1065" type="CarDefault" departLane="random" />
	<vehicle id="v14" depart="103.7" route="sr1065" type="CarDefault" departLane="random" />
	<vehicle id="v561" depart="103.7" route="sr1068" type="CarDefault" departLane="random" />
	<vehicle id="v202" depart="103.78" route="sr1066" type="CarDefault" departLane="random" />
	<vehicle id="v378" depart="104" route="sr1067" type="CarDefault" departLane="random" />
	<vehicle id="v379" depart="105" route="sr1067" type="CarDefault" departLane="random" />
	<vehicle id="v381" depart="107" route="sr1067" type="CarDefault" departLane="random" />
	<vehicle id="v203" depart="107.03" route="sr1066" type="CarDefault" departLane="random" />
	<vehicle id="v382" depart="108" route="sr1067" type="CarDefault" departLane="random" />
	<vehicle id="v384" depart="109" route="sr1067" type="CarDefault" departLane="random" />
	<vehicle id="v204" depart="110.27" route="sr1066" type="CarDefault" departLane="random" />
	<vehicle id="v15" depart="111.11" route="sr1065" type="CarDefault" departLane="random" />
	<vehicle id="v562" depart="111.11" route="sr1068" type="CarDefault" departLane="random" />
	<vehicle id="v380" depart="113" route="sr1067" type="CarDefault" departLane="random" />
	<vehicle id="v205" depart="113.51" route="sr1066" type="CarDefault" departLane="random" />
	<vehicle id="v377" depart="115" route="sr1067" type="CarDefault" departLane="random" />
	<vehicle id="v206" depart="116.76" route="sr1066" type="CarDefault" departLane="random" />
	<vehicle id="v383" depart="117" route="sr1067" type="CarDefault" departLane="random" />
	<vehicle id="v16" depart="118.52" route="sr1065" type="CarDefault" departLane="random" />
	<vehicle id="v563" depart="118.52" route="sr1068" type="CarDefault" departLane="random" />
	<vehicle id="v376" depart="119" route="sr1067" type="CarDefault" departLane="random" />
	<vehicle id="v207" depart="120.0" route="sr1066" type="CarDefault" departLane="random" />
	<vehicle id="v392" depart="120" route="sr1067" type="CarDefault" departLane="random" />
	<vehicle id="v387" depart="121" route="sr1067" type="CarDefault" departLane="random" />
	<vehicle id="v394" depart="121" route="sr1067" type="CarDefault" departLane="random" />
	<vehicle id="v577" depart="122" route="sr1068" type="CarDefault" departLane="random" />
	<vehicle id="v208" depart="123.24" route="sr1066" type="CarDefault" departLane="random" />
	<vehicle id="v17" depart="125.93" route="sr1065" type="CarDefault" departLane="random" />
	<vehicle id="v564" depart="125.93" route="sr1068" type="CarDefault" departLane="random" />
	<vehicle id="v388" depart="126" route="sr1067" type="CarDefault" departLane="random" />
	<vehicle id="v575" depart="126" route="sr1068" type="CarDefault" departLane="random" />
	<vehicle id="v209" depart="126.49" route="sr1066" type="CarDefault" departLane="random" />
	<vehicle id="v395" depart="127" route="sr1067" type="CarDefault" departLane="random" />
	<vehicle id="v579" depart="127" route="sr1068" type="CarDefault" departLane="random" />
	<vehicle id="v389" depart="128" route="sr1067" type="CarDefault" departLane="random" />
	<vehicle id="v210" depart="129.73" route="sr1066" type="CarDefault" departLane="random" />
	<vehicle id="v391" depart="132" route="sr1067" type="CarDefault" departLane="random" />
	<vehicle id="v211" depart="132.97" route="sr1066" type="CarDefault" departLane="random" />
	<vehicle id="v18" depart="133.33" route="sr1065" type="CarDefault" departLane="random" />
	<vehicle id="v565" depart="133.33" route="sr1068" type="CarDefault" departLane="random" />
	<vehicle id="v385" depart="134" route="sr1067" type="CarDefault" departLane="random" />
	<vehicle id="v212" depart="136.22" route="sr1066" type="CarDefault" departLane="random" />
	<vehicle id="v386" depart="137" route="sr1067" type="CarDefault" departLane="random" />
	<vehicle id="v390" depart="137" route="sr1067" type="CarDefault" departLane="random" />
	<vehicle id="v393" depart="139" route="sr1067" type="CarDefault" departLane="random" />
	<vehicle id="v213" depart="139.46" route="sr1066" type="CarDefault" departLane="random" />
	<vehicle id="v19" depart="140.74" route="sr1065" type="CarDefault" departLane="random" />
	<vehicle id="v566" depart="140.74" route="sr1068" type="CarDefault" departLane="random" />
	<vehicle id="v403" depart="141" route="sr1067" type="CarDefault" departLane="random" />
	<vehicle id="v214" depart="142.7" route="sr1066" type="CarDefault" departLane="random" />
	<vehicle id="v215" depart="145.95" route="sr1066" type="CarDefault" departLane="random" />
	<vehicle id="v399" depart="146" route="sr1067" type="CarDefault" departLane="random" />
	<vehicle id="v580" depart="146" route="sr1068" type="CarDefault" departLane="random" />
	<vehicle id="v578" depart="147" route="sr1068" type="CarDefault" departLane="random" />
	<vehicle id="v396" depart="148" route="sr1067" type="CarDefault" departLane="random" />
	<vehicle id="v20" depart="148.15" route="sr1065" type="CarDefault" departLane="random" />
	<vehicle id="v567" depart="148.15" route="sr1068" type="CarDefault" departLane="random" />
	<vehicle id="v216" depart="149.19" route="sr1066" type="CarDefault" departLane="random" />
	<vehicle id="v217" depart="152.43" route="sr1066" type="CarDefault" departLane="random" />
	<vehicle id="v398" depart="153" route="sr1067" type="CarDefault" departLane="random" />
	<vehicle id="v31" depart="155" route="sr1065" type="CarDefault" departLane="random" />
	<vehicle id="v397" depart="155" route="sr1067" type="CarDefault" departLane="random" />
	<vehicle id="v400" depart="155" route="sr1067" type="CarDefault" departLane="random" />
	<vehicle id="v21" depart="155.56" route="sr1065" type="CarDefault" departLane="random" />
	<vehicle id="v568" depart="155.56" route="sr1068" type="CarDefault" departLane="random" />
	<vehicle id="v218" depart="155.68" route="sr1066" type="CarDefault" departLane="random" />
	<vehicle id="v402" depart="156" route="sr1067" type="CarDefault" departLane="random" />
	<vehicle id="v401" depart="158" route="sr1067" type="CarDefault" departLane="random" />
	<vehicle id="v219" depart="158.92" route="sr1066" type="CarDefault" departLane="random" />
	<vehicle id="v414" depart="160" route="sr1067" type="CarDefault" departLane="random" />
	<vehicle id="v407" depart="162" route="sr1067" type="CarDefault" departLane="random" />
	<vehicle id="v220" depart="162.16" route="sr1066" type="CarDefault" departLane="random" />
	<vehicle id="v22" depart="162.96" route="sr1065" type="CarDefault" departLane="random" />
	<vehicle id="v569" depart="162.96" route="sr1068" type="CarDefault" departLane="random" />
	<vehicle id="v408" depart="165" route="sr1067" type="CarDefault" departLane="random" />
	<vehicle id="v221" depart="165.41" route="sr1066" type="CarDefault" departLane="random" />
	<vehicle id="v576" depart="166" route="sr1068" type="CarDefault" departLane="random" />
	<vehicle id="v404" depart="168" route="sr1067" type="CarDefault" departLane="random" />
	<vehicle id="v222" depart="168.65" route="sr1066" type="CarDefault" departLane="random" />
	<vehicle id="v23" depart="170.37" route="sr1065" type="CarDefault" departLane="random" />
	<vehicle id="v570" depart="170.37" route="sr1068" type="CarDefault" departLane="random" />
	<vehicle id="v223" depart="171.89" route="sr1066" type="CarDefault" departLane="random" />
	<vehicle id="v405" depart="172" route="sr1067" type="CarDefault" departLane="random" />
	<vehicle id="v32" depart="173" route="sr1065" type="CarDefault" departLane="random" />
	<vehicle id="v409" depart="174" route="sr1067" type="CarDefault" departLane="random" />
	<vehicle id="v224" depart="175.14" route="sr1066" type="CarDefault" departLane="random" />
	<vehicle id="v413" depart="177" route="sr1067" type="CarDefault" departLane="random" />
	<vehicle id="v24" depart="177.78" route="sr1065" type="CarDefault" departLane="random" />
	<vehicle id="v571" depart="177.78" route="sr1068" type="CarDefault" departLane="random" />
	<vehicle id="v406" depart="178" route="sr1067" type="CarDefault" departLane="random" />
	<vehicle id="v225" depart="178.38" route="sr1066" type="CarDefault" departLane="random" />
	<vehicle id="v28" depart="179" route="sr1065" type="CarDefault" departLane="random" />
	<vehicle id="v410" depart="179" route="sr1067" type="CarDefault" departLane="random" />
	<vehicle id="v411" depart="179" route="sr1067" type="CarDefault" departLane="random" />
	<vehicle id="v412" depart="179" route="sr1067" type="CarDefault" departLane="random" />
	<vehicle id="v226" depart="181.62" route="sr1066" type="CarDefault" departLane="random" />
	<vehicle id="v416" depart="184" route="sr1067" type="CarDefault" departLane="random" />
	<vehicle id="v227" depart="184.86" route="sr1066" type="CarDefault" departLane="random" />
	<vehicle id="v29" depart="185" route="sr1065" type="CarDefault" departLane="random" />
	<vehicle id="v421" depart="185" route="sr1067" type="CarDefault" departLane="random" />
	<vehicle id="v25" depart="185.19" route="sr1065" type="CarDefault" departLane="random" />
	<vehicle id="v572" depart="185.19" route="sr1068" type="CarDefault" departLane="random" />
	<vehicle id="v228" depart="188.11" route="sr1066" type="CarDefault" departLane="random" />
	<vehicle id="v419" depart="190" route="sr1067" type="CarDefault" departLane="random" />
	<vehicle id="v229" depart="191.35" route="sr1066" type="CarDefault" departLane="random" />
	<vehicle id="v415" depart="192" route="sr1067" type="CarDefault" departLane="random" />
	<vehicle id="v26" depart="192.59" route="sr1065" type="CarDefault" departLane="random" />
	<vehicle id="v573" depart="192.59" route="sr1068" type="CarDefault" departLane="random" />
	<vehicle id="v33" depart="193" route="sr1065" type="CarDefault" departLane="random" />
	<vehicle id="v230" depart="194.59" route="sr1066" type="CarDefault" departLane="random" />
	<vehicle id="v418" depart="197" route="sr1067" type="CarDefault" departLane="random" />
	<vehicle id="v231" depart="197.84" route="sr1066" type="CarDefault" departLane="random" />
	<vehicle id="v420" depart="198" route="sr1067" type="CarDefault" departLane="random" />
	<vehicle id="v417" depart="199" route="sr1067" type="CarDefault" departLane="random" />
	<vehicle id="v27" depart="200.0" route="sr1065" type="CarDefault" departLane="random" />
	<vehicle id="v34" depart="200.0" route="sr1065" type="CarDefault" departLane="random" />
	<vehicle id="v574" depart="200.0" route="sr1068" type="CarDefault" departLane="random" />
	<vehicle id="v581" depart="200.0" route="sr1068" type="CarDefault" departLane="random" />
	<vehicle id="v232" depart="201.08" route="sr1066" type="CarDefault" departLane="random" />
	<vehicle id="v426" depart="203" route="sr1067" type="CarDefault" departLane="random" />
	<vehicle id="v233" depart="204.32" route="sr1066" type="CarDefault" departLane="random" />
	<vehicle id="v423" depart="205" route="sr1067" type="CarDefault" departLane="random" />
	<vehicle id="v424" depart="205" route="sr1067" type="CarDefault" departLane="random" />
	<vehicle id="v35" depart="205.13" route="sr1065" type="CarDefault" departLane="random" />
	<vehicle id="v582" depart="205.13" route="sr1068" type="CarDefault" departLane="random" />
	<vehicle id="v234" depart="207.57" route="sr1066" type="CarDefault" departLane="random" />
	<vehicle id="v428" depart="208" route="sr1067" type="CarDefault" departLane="random" />
	<vehicle id="v422" depart="209" route="sr1067" type="CarDefault" departLane="random" />
	<vehicle id="v429" depart="210" route="sr1067" type="CarDefault" departLane="random" />
	<vehicle id="v36" depart="210.26" route="sr1065" type="CarDefault" departLane="random" />
	<vehicle id="v583" depart="210.26" route="sr1068" type="CarDefault" departLane="random" />
	<vehicle id="v235" depart="210.81" route="sr1066" type="CarDefault" departLane="random" />
	<vehicle id="v236" depart="214.05" route="sr1066" type="CarDefault" departLane="random" />
	<vehicle id="v425" depart="215" route="sr1067" type="CarDefault" departLane="random" />
	<vehicle id="v427" depart="215" route="sr1067" type="CarDefault" departLane="random" />
	<vehicle id="v37" depart="215.38" route="sr1065" type="CarDefault" departLane="random" />
	<vehicle id="v584" depart="215.38" route="sr1068" type="CarDefault" departLane="random" />
	<vehicle id="v237" depart="217.3" route="sr1066" type="CarDefault" departLane="random" />
	<vehicle id="v38" depart="220.51" route="sr1065" type="CarDefault" departLane="random" />
	<vehicle id="v585" depart="220.51" route="sr1068" type="CarDefault" departLane="random" />
	<vehicle id="v238" depart="220.54" route="sr1066" type="CarDefault" departLane="random" />
	<vehicle id="v434" depart="221" route="sr1067" type="CarDefault" departLane="random" />
	<vehicle id="v437" depart="222" route="sr1067" type="CarDefault" departLane="random" />
	<vehicle id="v239" depart="223.78" route="sr1066" type="CarDefault" departLane="random" />
	<vehicle id="v435" depart="224" route="sr1067" type="CarDefault" departLane="random" />
	<vehicle id="v431" depart="225" route="sr1067" type="CarDefault" departLane="random" />
	<vehicle id="v39" depart="225.64" route="sr1065" type="CarDefault" departLane="random" />
	<vehicle id="v586" depart="225.64" route="sr1068" type="CarDefault" departLane="random" />
	<vehicle id="v430" depart="227" route="sr1067" type="CarDefault" departLane="random" />
	<vehicle id="v433" depart="227" route="sr1067" type="CarDefault" departLane="random" />
	<vehicle id="v240" depart="227.03" route="sr1066" type="CarDefault" departLane="random" />
	<vehicle id="v241" depart="230.27" route="sr1066" type="CarDefault" departLane="random" />
	<vehicle id="v40" depart="230.77" route="sr1065" type="CarDefault" departLane="random" />
	<vehicle id="v587" depart="230.77" route="sr1068" type="CarDefault" departLane="random" />
	<vehicle id="v436" depart="231" route="sr1067" type="CarDefault" departLane="random" />
	<vehicle id="v242" depart="233.51" route="sr1066" type="CarDefault" departLane="random" />
	<vehicle id="v432" depart="234" route="sr1067" type="CarDefault" departLane="random" />
	<vehicle id="v41" depart="235.9" route="sr1065" type="CarDefault" departLane="random" />
	<vehicle id="v588" depart="235.9" route="sr1068" type="CarDefault" departLane="random" />
	<vehicle id="v243" depart="236.76" route="sr1066" type="CarDefault" departLane="random" />
	<vehicle id="v244" depart="240.0" route="sr1066" type="CarDefault" departLane="random" />
	<vehicle id="v42" depart="241.03" route="sr1065" type="CarDefault" departLane="random" />
	<vehicle id="v589" depart="241.03" route="sr1068" type="CarDefault" departLane="random" />
	<vehicle id="v438" depart="243" route="sr1067" type="CarDefault" departLane="random" />
	<vehicle id="v441" depart="243" route="sr1067" type="CarDefault" departLane="random" />
	<vehicle id="v443" depart="243" route="sr1067" type="CarDefault" departLane="random" />
	<vehicle id="v245" depart="243.24" route="sr1066" type="CarDefault" departLane="random" />
	<vehicle id="v445" depart="245" route="sr1067" type="CarDefault" departLane="random" />
	<vehicle id="v439" depart="246" route="sr1067" type="CarDefault" departLane="random" />
	<vehicle id="v43" depart="246.15" route="sr1065" type="CarDefault" departLane="random" />
	<vehicle id="v590" depart="246.15" route="sr1068" type="CarDefault" departLane="random" />
	<vehicle id="v246" depart="246.49" route="sr1066" type="CarDefault" departLane="random" />
	<vehicle id="v442" depart="248" route="sr1067" type="CarDefault" departLane="random" />
	<vehicle id="v440" depart="249" route="sr1067" type="CarDefault" departLane="random" />
	<vehicle id="v247" depart="249.73" route="sr1066" type="CarDefault" departLane="random" />
	<vehicle id="v444" depart="251" route="sr1067" type="CarDefault" departLane="random" />
	<vehicle id="v44" depart="251.28" route="sr1065" type="CarDefault" departLane="random" />
	<vehicle id="v591" depart="251.28" route="sr1068" type="CarDefault" departLane="random" />
	<vehicle id="v248" depart="252.97" route="sr1066" type="CarDefault" departLane="random" />
	<vehicle id="v249" depart="256.22" route="sr1066" type="CarDefault" departLane="random" />
	<vehicle id="v45" depart="256.41" route="sr1065" type="CarDefault" departLane="random" />
	<vehicle id="v592" depart="256.41" route="sr1068" type="CarDefault" departLane="random" />
	<vehicle id="v250" depart="259.46" route="sr1066" type="CarDefault" departLane="random" />
	<vehicle id="v46" depart="261.54" route="sr1065" type="CarDefault" departLane="random" />
	<vehicle id="v593" depart="261.54" route="sr1068" type="CarDefault" departLane="random" />
	<vehicle id="v251" depart="262.7" route="sr1066" type="CarDefault" departLane="random" />
	<vehicle id="v252" depart="265.95" route="sr1066" type="CarDefault" departLane="random" />
	<vehicle id="v47" depart="266.67" route="sr1065" type="CarDefault" departLane="random" />
	<vehicle id="v594" depart="266.67" route="sr1068" type="CarDefault" departLane="random" />
	<vehicle id="v447" depart="269" route="sr1067" type="CarDefault" departLane="random" />
	<vehicle id="v253" depart="269.19" route="sr1066" type="CarDefault" departLane="random" />
	<vehicle id="v48" depart="271.79" route="sr1065" type="CarDefault" departLane="random" />
	<vehicle id="v595" depart="271.79" route="sr1068" type="CarDefault" departLane="random" />
	<vehicle id="v446" depart="272" route="sr1067" type="CarDefault" departLane="random" />
	<vehicle id="v254" depart="272.43" route="sr1066" type="CarDefault" departLane="random" />
	<vehicle id="v448" depart="275" route="sr1067" type="CarDefault" departLane="random" />
	<vehicle id="v255" depart="275.68" route="sr1066" type="CarDefault" departLane="random" />
	<vehicle id="v49" depart="276.92" route="sr1065" type="CarDefault" departLane="random" />
	<vehicle id="v596" depart="276.92" route="sr1068" type="CarDefault" departLane="random" />
	<vehicle id="v256" depart="278.92" route="sr1066" type="CarDefault" departLane="random" />
	<vehicle id="v451" depart="281" route="sr1067" type="CarDefault" departLane="random" />
	<vehicle id="v50" depart="282.05" route="sr1065" type="CarDefault" departLane="random" />
	<vehicle id="v597" depart="282.05" route="sr1068" type="CarDefault" departLane="random" />
	<vehicle id="v257" depart="282.16" route="sr1066" type="CarDefault" departLane="random" />
	<vehicle id="v450" depart="285" route="sr1067" type="CarDefault" departLane="random" />
	<vehicle id="v258" depart="285.41" route="sr1066" type="CarDefault" departLane="random" />
	<vehicle id="v454" depart="286" route="sr1067" type="CarDefault" departLane="random" />
	<vehicle id="v51" depart="287.18" route="sr1065" type="CarDefault" departLane="random" />
	<vehicle id="v598" depart="287.18" route="sr1068" type="CarDefault" departLane="random" />
	<vehicle id="v259" depart="288.65" route="sr1066" type="CarDefault" departLane="random" />
	<vehicle id="v449" depart="289" route="sr1067" type="CarDefault" departLane="random" />
	<vehicle id="v260" depart="291.89" route="sr1066" type="CarDefault" departLane="random" />
	<vehicle id="v52" depart="292.31" route="sr1065" type="CarDefault" departLane="random" />
	<vehicle id="v599" depart="292.31" route="sr1068" type="CarDefault" departLane="random" />
	<vehicle id="v453" depart="293" route="sr1067" type="CarDefault" departLane="random" />
	<vehicle id="v455" depart="295" route="sr1067" type="CarDefault" departLane="random" />
	<vehicle id="v261" depart="295.14" route="sr1066" type="CarDefault" departLane="random" />
	<vehicle id="v53" depart="297.44" route="sr1065" type="CarDefault" departLane="random" />
	<vehicle id="v600" depart="297.44" route="sr1068" type="CarDefault" departLane="random" />
	<vehicle id="v262" depart="298.38" route="sr1066" type="CarDefault" departLane="random" />
	<vehicle id="v452" depart="299" route="sr1067" type="CarDefault" departLane="random" />
	<vehicle id="v263" depart="301.62" route="sr1066" type="CarDefault" departLane="random" />
	<vehicle id="v54" depart="302.56" route="sr1065" type="CarDefault" departLane="random" />
	<vehicle id="v601" depart="302.56" route="sr1068" type="CarDefault" departLane="random" />
	<vehicle id="v458" depart="303" route="sr1067" type="CarDefault" departLane="random" />
	<vehicle id="v624" depart="303" route="sr1068" type="CarDefault" departLane="random" />
	<vehicle id="v264" depart="304.86" route="sr1066" type="CarDefault" departLane="random" />
	<vehicle id="v55" depart="307.69" route="sr1065" type="CarDefault" departLane="random" />
	<vehicle id="v602" depart="307.69" route="sr1068" type="CarDefault" departLane="random" />
	<vehicle id="v457" depart="308" route="sr1067" type="CarDefault" departLane="random" />
	<vehicle id="v459" depart="308" route="sr1067" type="CarDefault" departLane="random" />
	<vehicle id="v265" depart="308.11" route="sr1066" type="CarDefault" departLane="random" />
	<vehicle id="v456" depart="310" route="sr1067" type="CarDefault" departLane="random" />
	<vehicle id="v266" depart="311.35" route="sr1066" type="CarDefault" departLane="random" />
	<vehicle id="v56" depart="312.82" route="sr1065" type="CarDefault" departLane="random" />
	<vehicle id="v603" depart="312.82" route="sr1068" type="CarDefault" departLane="random" />
	<vehicle id="v267" depart="314.59" route="sr1066" type="CarDefault" departLane="random" />
	<vehicle id="v80" depart="317" route="sr1065" type="CarDefault" departLane="random" />
	<vehicle id="v82" depart="317" route="sr1065" type="CarDefault" departLane="random" />
	<vehicle id="v268" depart="317.84" route="sr1066" type="CarDefault" departLane="random" />
	<vehicle id="v57" depart="317.95" route="sr1065" type="CarDefault" departLane="random" />
	<vehicle id="v604" depart="317.95" route="sr1068" type="CarDefault" departLane="random" />