<?xml version='1.0' encoding='utf-8'?>
<routes>
	<vType accel="3.0" decel="6.0" id="CarDefault" length="5.0" minGap="2.5" maxSpeed="50.0" sigma="0.5" />
	<route id="sr460" edges="279 280 281 282 283 284 285 402 403 404 405 406 454 206 18 17 91 16 15 139 140 141 431 255" fromJunction="42" toJunction="154" />
	<route id="sr461" edges="231 178 179 180 181 182 183 413 82 209 208 49 48 47" fromJunction="11" toJunction="127" />
	<route id="sr462" edges="226 227 228 116 359 300 301 124 30 29 28 27 26 25 50" fromJunction="127" toJunction="11" />
	<route id="sr463" edges="62 129 61 6 5 161 162 361 163 164 38 134 116 115 114 113 112 74 73 72 71 70 69 68" fromJunction="154" toJunction="42" />
	<route id="sr464" edges="46 144 289 307 155 198 199 200 247 366 367 368 348 141 431 255" fromJunction="132" toJunction="154" />
	<vehicle id="v0" depart="0.0" route="sr460" type="CarDefault" departLane="random" />
	<vehicle id="v312" depart="0.0" route="sr462" type="CarDefault" departLane="random" />
	<vehicle id="v444" depart="0" route="sr463" type="CarDefault" departLane="random" />
	<vehicle id="v795" depart="0.0" route="sr464" type="CarDefault" departLane="random" />
	<vehicle id="v189" depart="1" route="sr461" type="CarDefault" departLane="random" />
	<vehicle id="v453" depart="1" route="sr463" type="CarDefault" departLane="random" />
	<vehicle id="v446" depart="3" route="sr463" type="CarDefault" departLane="random" />
	<vehicle id="v450" depart="3" route="sr463" type="CarDefault" departLane="random" />
	<vehicle id="v1" depart="3.19" route="sr460" type="CarDefault" departLane="random" />
	<vehicle id="v452" depart="4" route="sr463" type="CarDefault" departLane="random" />
	<vehicle id="v313" depart="4.69" route="sr462" type="CarDefault" departLane="random" />
	<vehicle id="v2" depart="6.38" route="sr460" type="CarDefault" departLane="random" />
	<vehicle id="v442" depart="7" route="sr463" type="CarDefault" departLane="random" />
	<vehicle id="v451" depart="7" route="sr463" type="CarDefault" departLane="random" />
	<vehicle id="v796" depart="7.41" route="sr464" type="CarDefault" departLane="random" />
	<vehicle id="v445" depart="8" route="sr463" type="CarDefault" departLane="random" />
	<vehicle id="v447" depart="8" route="sr463" type="CarDefault" departLane="random" />
	<vehicle id="v314" depart="9.38" route="sr462" type="CarDefault" departLane="random" />
	<vehicle id="v3" depart="9.57" route="sr460" type="CarDefault" departLane="random" />
	<vehicle id="v190" depart="11" route="sr461" type="CarDefault" departLane="random" />
	<vehicle id="v449" depart="11" route="sr463" type="CarDefault" departLane="random" />
	<vehicle id="v4" depart="12.77" route="sr460" type="CarDefault" departLane="random" />
	<vehicle id="v315" depart="14.06" route="sr462" type="CarDefault" departLane="random" />
	<vehicle id="v797" depart="14.81" route="sr464" type="CarDefault" departLane="random" />
	<vehicle id="v443" depart="15" route="sr463" type="CarDefault" departLane="random" />
	<vehicle id="v5" depart="15.96" route="sr460" type="CarDefault" departLane="random" />
	<vehicle id="v448" depart="16" route="sr463" type="CarDefault" departLane="random" />
	<vehicle id="v316" depart="18.75" route="sr462" type="CarDefault" departLane="random" />
	<vehicle id="v441" depart="19" route="sr463" type="CarDefault" departLane="random" />
	<vehicle id="v6" depart="19.15" route="sr460" type="CarDefault" departLane="random" />
	<vehicle id="v193" depart="20" route="sr461" type="CarDefault" departLane="random" />
	<vehicle id="v798" depart="22.22" route="sr464" type="CarDefault" departLane="random" />
	<vehicle id="v7" depart="22.34" route="sr460" type="CarDefault" departLane="random" />
	<vehicle id="v460" depart="23" route="sr463" type="CarDefault" departLane="random" />
	<vehicle id="v317" depart="23.44" route="sr462" type="CarDefault" departLane="random" />
	<vehicle id="v192" depart="24" route="sr461" type="CarDefault" departLane="random" />
	<vehicle id="v466" depart="25" route="sr463" type="CarDefault" departLane="random" />
	<vehicle id="v8" depart="25.53" route="sr460" type="CarDefault" departLane="random" />
	<vehicle id="v456" depart="26" route="sr463" type="CarDefault" departLane="random" />
	<vehicle id="v462" depart="26" route="sr463" type="CarDefault" departLane="random" />
	<vehicle id="v465" depart="27" route="sr463" type="CarDefault" departLane="random" />
	<vehicle id="v457" depart="28" route="sr463" type="CarDefault" departLane="random" />
	<vehicle id="v318" depart="28.12" route="sr462" type="CarDefault" departLane="random" />
	<vehicle id="v9" depart="28.72" route="sr460" type="CarDefault" departLane="random" />
	<vehicle id="v458" depart="29" route="sr463" type="CarDefault" departLane="random" />
	<vehicle id="v464" depart="29" route="sr463" type="CarDefault" departLane="random" />
	<vehicle id="v799" depart="29.63" route="sr464" type="CarDefault" departLane="random" />
	<vehicle id="v455" depart="30" route="sr463" type="CarDefault" departLane="random" />
	<vehicle id="v461" depart="31" route="sr463" type="CarDefault" departLane="random" />
	<vehicle id="v10" depart="31.91" route="sr460" type="CarDefault" departLane="random" />
	<vehicle id="v319" depart="32.81" route="sr462" type="CarDefault" departLane="random" />
	<vehicle id="v459" depart="34" route="sr463" type="CarDefault" departLane="random" />
	<vehicle id="v194" depart="35" route="sr461" type="CarDefault" departLane="random" />
	<vehicle id="v11" depart="35.11" route="sr460" type="CarDefault" departLane="random" />
	<vehicle id="v800" depart="37.04" route="sr464" type="CarDefault" departLane="random" />
	<vehicle id="v320" depart="37.5" route="sr462" type="CarDefault" departLane="random" />
	<vehicle id="v463" depart="38" route="sr463" type="CarDefault" departLane="random" />
	<vehicle id="v12" depart="38.3" route="sr460" type="CarDefault" departLane="random" />
	<vehicle id="v191" depart="39" route="sr461" type="CarDefault" departLane="random" />
	<vehicle id="v454" depart="39" route="sr463" type="CarDefault" departLane="random" />
	<vehicle id="v480" depart="41" route="sr463" type="CarDefault" departLane="random" />
	<vehicle id="v13" depart="41.49" route="sr460" type="CarDefault" departLane="random" />
	<vehicle id="v477" depart="42" route="sr463" type="CarDefault" departLane="random" />
	<vehicle id="v479" depart="42" route="sr463" type="CarDefault" departLane="random" />
	<vehicle id="v321" depart="42.19" route="sr462" type="CarDefault" departLane="random" />
	<vehicle id="v476" depart="43" route="sr463" type="CarDefault" departLane="random" />
	<vehicle id="v801" depart="44.44" route="sr464" type="CarDefault" departLane="random" />
	<vehicle id="v14" depart="44.68" route="sr460" type="CarDefault" departLane="random" />
	<vehicle id="v322" depart="46.88" route="sr462" type="CarDefault" departLane="random" />
	<vehicle id="v469" depart="47" route="sr463" type="CarDefault" departLane="random" />
	<vehicle id="v473" depart="47" route="sr463" type="CarDefault" departLane="random" />
	<vehicle id="v475" depart="47" route="sr463" type="CarDefault" departLane="random" />
	<vehicle id="v15" depart="47.87" route="sr460" type="CarDefault" departLane="random" />
	<vehicle id="v467" depart="48" route="sr463" type="CarDefault" departLane="random" />
	<vehicle id="v468" depart="49" route="sr463" type="CarDefault" departLane="random" />
	<vehicle id="v471" depart="50" route="sr463" type="CarDefault" departLane="random" />
	<vehicle id="v195" depart="51" route="sr461" type="CarDefault" departLane="random" />
	<vehicle id="v16" depart="51.06" route="sr460" type="CarDefault" departLane="random" />
	<vehicle id="v323" depart="51.56" route="sr462" type="CarDefault" departLane="random" />
	<vehicle id="v802" depart="51.85" route="sr464" type="CarDefault" departLane="random" />
	<vehicle id="v17" depart="54.26" route="sr460" type="CarDefault" departLane="random" />
	<vehicle id="v472" depart="56" route="sr463" type="CarDefault" departLane="random" />
	<vehicle id="v324" depart="56.25" route="sr462" type="CarDefault" departLane="random" />
	<vehicle id="v478" depart="57" route="sr463" type="CarDefault" departLane="random" />
	<vehicle id="v18" depart="57.45" route="sr460" type="CarDefault" departLane="random" />
	<vehicle id="v470" depart="58" route="sr463" type="CarDefault" departLane="random" />
	<vehicle id="v474" depart="58" route="sr463" type="CarDefault" departLane="random" />
	<vehicle id="v803" depart="59.26" route="sr464" type="CarDefault" departLane="random" />
	<vehicle id="v197" depart="60" route="sr461" type="CarDefault" departLane="random" />
	<vehicle id="v19" depart="60.64" route="sr460" type="CarDefault" departLane="random" />
	<vehicle id="v325" depart="60.94" route="sr462" type="CarDefault" departLane="random" />
	<vehicle id="v488" depart="61" route="sr463" type="CarDefault" departLane="random" />
	<vehicle id="v201" depart="62" route="sr461" type="CarDefault" departLane="random" />
	<vehicle id="v489" depart="63" route="sr463" type="CarDefault" departLane="random" />
	<vehicle id="v20" depart="63.83" route="sr460" type="CarDefault" departLane="random" />
	<vehicle id="v326" depart="65.62" route="sr462" type="CarDefault" departLane="random" />
	<vehicle id="v484" depart="66" route="sr463" type="CarDefault" departLane="random" />
	<vehicle id="v804" depart="66.67" route="sr464" type="CarDefault" departLane="random" />
	<vehicle id="v21" depart="67.02" route="sr460" type="CarDefault" departLane="random" />
	<vehicle id="v483" depart="68" route="sr463" type="CarDefault" departLane="random" />
	<vehicle id="v487" depart="68" route="sr463" type="CarDefault" departLane="random" />
	<vehicle id="v490" depart="68" route="sr463" type="CarDefault" departLane="random" />
	<vehicle id="v481" depart="70" route="sr463" type="CarDefault" departLane="random" />
	<vehicle id="v22" depart="70.21" route="sr460" type="CarDefault" departLane="random" />
	<vehicle id="v327" depart="70.31" route="sr462" type="CarDefault" departLane="random" />
	<vehicle id="v196" depart="73" route="sr461" type="CarDefault" departLane="random" />
	<vehicle id="v486" depart="73" route="sr463" type="CarDefault" departLane="random" />
	<vehicle id="v23" depart="73.4" route="sr460" type="CarDefault" departLane="random" />
	<vehicle id="v198" depart="74" route="sr461" type="CarDefault" departLane="random" />
	<vehicle id="v485" depart="74" route="sr463" type="CarDefault" departLane="random" />
	<vehicle id="v805" depart="74.07" route="sr464" type="CarDefault" departLane="random" />
	<vehicle id="v199" depart="75" route="sr461" type="CarDefault" departLane="random" />
	<vehicle id="v328" depart="75.0" route="sr462" type="CarDefault" departLane="random" />
	<vehicle id="v482" depart="76" route="sr463" type="CarDefault" departLane="random" />
	<vehicle id="v24" depart="76.6" route="sr460" type="CarDefault" departLane="random" />
	<vehicle id="v200" depart="77" route="sr461" type="CarDefault" departLane="random" />
	<vehicle id="v491" depart="79" route="sr463" type="CarDefault" departLane="random" />
	<vehicle id="v329" depart="79.69" route="sr462" type="CarDefault" departLane="random" />
	<vehicle id="v25" depart="79.79" route="sr460" type="CarDefault" departLane="random" />
	<vehicle id="v806" depart="81.48" route="sr464" type="CarDefault" departLane="random" />
	<vehicle id="v500" depart="82" route="sr463" type="CarDefault" departLane="random" />
	<vehicle id="v26" depart="82.98" route="sr460" type="CarDefault" departLane="random" />
	<vehicle id="v496" depart="83" route="sr463" type="CarDefault" departLane="random" />
	<vehicle id="v330" depart="84.38" route="sr462" type="CarDefault" departLane="random" />
	<vehicle id="v493" depart="85" route="sr463" type="CarDefault" departLane="random" />
	<vehicle id="v27" depart="86.17" route="sr460" type="CarDefault" departLane="random" />
	<vehicle id="v499" depart="87" route="sr463" type="CarDefault" departLane="random" />
	<vehicle id="v203" depart="88" route="sr461" type="CarDefault" departLane="random" />
	<vehicle id="v206" depart="88" route="sr461" type="CarDefault" departLane="random" />
	<vehicle id="v807" depart="88.89" route="sr464" type="CarDefault" departLane="random" />
	<vehicle id="v498" depart="89" route="sr463" type="CarDefault" departLane="random" />
	<vehicle id="v331" depart="89.06" route="sr462" type="CarDefault" departLane="random" />
	<vehicle id="v28" depart="89.36" route="sr460" type="CarDefault" departLane="random" />
	<vehicle id="v494" depart="91" route="sr463" type="CarDefault" departLane="random" />
	<vehicle id="v495" depart="91" route="sr463" type="CarDefault" departLane="random" />
	<vehicle id="v497" depart="92" route="sr463" type="CarDefault" departLane="random" />
	<vehicle id="v29" depart="92.55" route="sr460" type="CarDefault" departLane="random" />
	<vehicle id="v332" depart="93.75" route="sr462" type="CarDefault" departLane="random" />
	<vehicle id="v202" depart="94" route="sr461" type="CarDefault" departLane="random" />
	<vehicle id="v492" depart="95" route="sr463" type="CarDefault" departLane="random" />
	<vehicle id="v30" depart="95.74" route="sr460" type="CarDefault" departLane="random" />
	<vehicle id="v205" depart="96" route="sr461" type="CarDefault" departLane="random" />
	<vehicle id="v808" depart="96.3" route="sr464" type="CarDefault" departLane="random" />
	<vehicle id="v204" depart="98" route="sr461" type="CarDefault" departLane="random" />
	<vehicle id="v333" depart="98.44" route="sr462" type="CarDefault" departLane="random" />
	<vehicle id="v31" depart="98.94" route="sr460" type="CarDefault" departLane="random" />
	<vehicle id="v213" depart="100" route="sr461" type="CarDefault" departLane="random" />
	<vehicle id="v512" depart="100" route="sr463" type="CarDefault" departLane="random" />
	<vehicle id="v507" depart="102" route="sr463" type="CarDefault" departLane="random" />
	<vehicle id="v32" depart="102.13" route="sr460" type="CarDefault" departLane="random" />
	<vehicle id="v208" depart="103" route="sr461" type="CarDefault" departLane="random" />
	<vehicle id="v504" depart="103" route="sr463" type="CarDefault" departLane="random" />
	<vehicle id="v510" depart="103" route="sr463" type="CarDefault" departLane="random" />
	<vehicle id="v334" depart="103.12" route="sr462" type="CarDefault" departLane="random" />
	<vehicle id="v809" depart="103.7" route="sr464" type="CarDefault" departLane="random" />
	<vehicle id="v212" depart="104" route="sr461" type="CarDefault" departLane="random" />
	<vehicle id="v33" depart="105.32" route="sr460" type="CarDefault" departLane="random" />
	<vehicle id="v502" depart="106" route="sr463" type="CarDefault" departLane="random" />
	<vehicle id="v511" depart="107" route="sr463" type="CarDefault" departLane="random" />
	<vehicle id="v335" depart="107.81" route="sr462" type="CarDefault" departLane="random" />
	<vehicle id="v34" depart="108.51" route="sr460" type="CarDefault" departLane="random" />
	<vehicle id="v215" depart="109" route="sr461" type="CarDefault" departLane="random" />
	<vehicle id="v209" depart="110" route="sr461" type="CarDefault" departLane="random" />
	<vehicle id="v508" depart="111" route="sr463" type="CarDefault" departLane="random" />
	<vehicle id="v810" depart="111.11" route="sr464" type="CarDefault" departLane="random" />
	<vehicle id="v35" depart="111.7" route="sr460" type="CarDefault" departLane="random" />
	<vehicle id="v505" depart="112" route="sr463" type="CarDefault" departLane="random" />
	<vehicle id="v506" depart="112" route="sr463" type="CarDefault" departLane="random" />
	<vehicle id="v824" depart="112" route="sr464" type="CarDefault" departLane="random" />
	<vehicle id="v336" depart="112.5" route="sr462" type="CarDefault" departLane="random" />
	<vehicle id="v207" depart="113" route="sr461" type="CarDefault" departLane="random" />
	<vehicle id="v210" depart="114" route="sr461" type="CarDefault" departLane="random" />
	<vehicle id="v211" depart="114" route="sr461" type="CarDefault" departLane="random" />
	<vehicle id="v501" depart="114" route="sr463" type="CarDefault" departLane="random" />
	<vehicle id="v513" depart="114" route="sr463" type="CarDefault" departLane="random" />
	<vehicle id="v36" depart="114.89" route="sr460" type="CarDefault" departLane="random" />
	<vehicle id="v214" depart="115" route="sr461" type="CarDefault" departLane="random" />
	<vehicle id="v337" depart="117.19" route="sr462" type="CarDefault" departLane="random" />
	<vehicle id="v503" depart="118" route="sr463" type="CarDefault" departLane="random" />
	<vehicle id="v37" depart="118.09" route="sr460" type="CarDefault" departLane="random" />
	<vehicle id="v811" depart="118.52" route="sr464" type="CarDefault" departLane="random" />
	<vehicle id="v509" depart="119" route="sr463" type="CarDefault" departLane="random" />
	<vehicle id="v216" depart="120" route="sr461" type="CarDefault" departLane="random" />
	<vehicle id="v523" depart="120" route="sr463" type="CarDefault" departLane="random" />
	<vehicle id="v38" depart="121.28" route="sr460" type="CarDefault" departLane="random" />
	<vehicle id="v338" depart="121.88" route="sr462" type="CarDefault" departLane="random" />
	<vehicle id="v517" depart="124" route="sr463" type="CarDefault" departLane="random" />
	<vehicle id="v39" depart="124.47" route="sr460" type="CarDefault" departLane="random" />
	<vehicle id="v516" depart="125" route="sr463" type="CarDefault" departLane="random" />
	<vehicle id="v524" depart="125" route="sr463" type="CarDefault" departLane="random" />
	<vehicle id="v812" depart="125.93" route="sr464" type="CarDefault" departLane="random" />
	<vehicle id="v339" depart="126.56" route="sr462" type="CarDefault" departLane="random" />
	<vehicle id="v217" depart="127" route="sr461" type="CarDefault" departLane="random" />
	<vehicle id="v40" depart="127.66" route="sr460" type="CarDefault" departLane="random" />
	<vehicle id="v41" depart="130.85" route="sr460" type="CarDefault" departLane="random" />
	<vehicle id="v519" depart="131" route="sr463" type="CarDefault" departLane="random" />
	<vehicle id="v520" depart="131" route="sr463" type="CarDefault" departLane="random" />
	<vehicle id="v340" depart="131.25" route="sr462" type="CarDefault" departLane="random" />
	<vehicle id="v522" depart="132" route="sr463" type="CarDefault" departLane="random" />
	<vehicle id="v813" depart="133.33" route="sr464" type="CarDefault" departLane="random" />
	<vehicle id="v521" depart="134" route="sr463" type="CarDefault" departLane="random" />
	<vehicle id="v42" depart="134.04" route="sr460" type="CarDefault" departLane="random" />
	<vehicle id="v341" depart="135.94" route="sr462" type="CarDefault" departLane="random" />
	<vehicle id="v515" depart="136" route="sr463" type="CarDefault" departLane="random" />
	<vehicle id="v218" depart="137" route="sr461" type="CarDefault" departLane="random" />
	<vehicle id="v514" depart="137" route="sr463" type="CarDefault" departLane="random" />
	<vehicle id="v43" depart="137.23" route="sr460" type="CarDefault" departLane="random" />
	<vehicle id="v518" depart="139" route="sr463" type="CarDefault" departLane="random" />
	<vehicle id="v527" depart="140" route="sr463" type="CarDefault" departLane="random" />
	<vehicle id="v44" depart="140.43" route="sr460" type="CarDefault" departLane="random" />
	<vehicle id="v342" depart="140.62" route="sr462" type="CarDefault" departLane="random" />
	<vehicle id="v814" depart="140.74" route="sr464" type="CarDefault" departLane="random" />
	<vehicle id="v533" depart="141" route="sr463" type="CarDefault" departLane="random" />
	<vehicle id="v538" depart="141" route="sr463" type="CarDefault" departLane="random" />
	<vehicle id="v225" depart="142" route="sr461" type="CarDefault" departLane="random" />
	<vehicle id="v45" depart="143.62" route="sr460" type="CarDefault" departLane="random" />
	<vehicle id="v343" depart="145.31" route="sr462" type="CarDefault" departLane="random" />
	<vehicle id="v526" depart="146" route="sr463" type="CarDefault" departLane="random" />
	<vehicle id="v534" depart="146" route="sr463" type="CarDefault" departLane="random" />
	<vehicle id="v46" depart="146.81" route="sr460" type="CarDefault" departLane="random" />
	<vehicle id="v221" depart="148" route="sr461" type="CarDefault" departLane="random" />
	<vehicle id="v224" depart="148" route="sr461" type="CarDefault" departLane="random" />
	<vehicle id="v826" depart="148" route="sr464" type="CarDefault" departLane="random" />
	<vehicle id="v828" depart="148" route="sr464" type="CarDefault" departLane="random" />
	<vehicle id="v815" depart="148.15" route="sr464" type="CarDefault" departLane="random" />
	<vehicle id="v823" depart="149" route="sr464" type="CarDefault" departLane="random" />
	<vehicle id="v47" depart="150.0" route="sr460" type="CarDefault" departLane="random" />
	<vehicle id="v344" depart="150.0" route="sr462" type="CarDefault" departLane="random" />
	<vehicle id="v532" depart="151" route="sr463" type="CarDefault" departLane="random" />
	<vehicle id="v531" depart="152" route="sr463" type="CarDefault" departLane="random" />
	<vehicle id="v535" depart="152" route="sr463" type="CarDefault" departLane="random" />
	<vehicle id="v223" depart="153" route="sr461" type="CarDefault" departLane="random" />
	<vehicle id="v536" depart="153" route="sr463" type="CarDefault" departLane="random" />
	<vehicle id="v48" depart="153.19" route="sr460" type="CarDefault" departLane="random" />
	<vehicle id="v345" depart="154.69" route="sr462" type="CarDefault" departLane="random" />
	<vehicle id="v220" depart="155" route="sr461" type="CarDefault" departLane="random" />
	<vehicle id="v530" depart="155" route="sr463" type="CarDefault" departLane="random" />
	<vehicle id="v537" depart="155" route="sr463" type="CarDefault" departLane="random" />
	<vehicle id="v816" depart="155.56" route="sr464" type="CarDefault" departLane="random" />
	<vehicle id="v219" depart="156" route="sr461" type="CarDefault" departLane="random" />
	<vehicle id="v49" depart="156.38" route="sr460" type="CarDefault" departLane="random" />
	<vehicle id="v222" depart="157" route="sr461" type="CarDefault" departLane="random" />
	<vehicle id="v528" depart="157" route="sr463" type="CarDefault" departLane="random" />
	<vehicle id="v525" depart="158" route="sr463" type="CarDefault" departLane="random" />
	<vehicle id="v529" depart="158" route="sr463" type="CarDefault" departLane="random" />
	<vehicle id="v346" depart="159.38" route="sr462" type="CarDefault" departLane="random" />
	<vehicle id="v50" depart="159.57" route="sr460" type="CarDefault" departLane="random" />
	<vehicle id="v549" depart="160" route="sr463" type="CarDefault" departLane="random" />
	<vehicle id="v827" depart="162" route="sr464" type="CarDefault" departLane="random" />
	<vehicle id="v51" depart="162.77" route="sr460" type="CarDefault" departLane="random" />
	<vehicle id="v817" depart="162.96" route="sr464" type="CarDefault" departLane="random" />
	<vehicle id="v347" depart="164.06" route="sr462" type="CarDefault" departLane="random" />
	<vehicle id="v544" depart="165" route="sr463" type="CarDefault" departLane="random" />
	<vehicle id="v547" depart="165" route="sr463" type="CarDefault" departLane="random" />
	<vehicle id="v52" depart="165.96" route="sr460" type="CarDefault" departLane="random" />
	<vehicle id="v348" depart="168.75" route="sr462" type="CarDefault" departLane="random" />
	<vehicle id="v53" depart="169.15" route="sr460" type="CarDefault" departLane="random" />
	<vehicle id="v818" depart="170.37" route="sr464" type="CarDefault" departLane="random" />
	<vehicle id="v227" depart="172" route="sr461" type="CarDefault" departLane="random" />
	<vehicle id="v539" depart="172" route="sr463" type="CarDefault" departLane="random" />
	<vehicle id="v54" depart="172.34" route="sr460" type="CarDefault" departLane="random" />
	<vehicle id="v546" depart="173" route="sr463" type="CarDefault" departLane="random" />
	<vehicle id="v349" depart="173.44" route="sr462" type="CarDefault" departLane="random" />
	<vehicle id="v542" depart="174" route="sr463" type="CarDefault" departLane="random" />
	<vehicle id="v548" depart="174" route="sr463" type="CarDefault" departLane="random" />
	<vehicle id="v540" depart="175" route="sr463" type="CarDefault" departLane="random" />
	<vehicle id="v541" depart="175" route="sr463" type="CarDefault" departLane="random" />
	<vehicle id="v543" depart="175" route="sr463" type="CarDefault" departLane="random" />
	<vehicle id="v55" depart="175.53" route="sr460" type="CarDefault" departLane="random" />
	<vehicle id="v226" depart="177" route="sr461" type="CarDefault" departLane="random" />
	<vehicle id="v550" depart="177" route="sr463" type="CarDefault" departLane="random" />
	<vehicle id="v551" depart="177" route="sr463" type="CarDefault" departLane="random" />
	<vehicle id="v819" depart="177.78" route="sr464" type="CarDefault" departLane="random" />
	<vehicle id="v545" depart="178" route="sr463" type="CarDefault" departLane="random" />
	<vehicle id="v350" depart="178.12" route="sr462" type="CarDefault" departLane="random" />
	<vehicle id="v56" depart="178.72" route="sr460" type="CarDefault" departLane="random" />
	<vehicle id="v555" depart="180" route="sr463" type="CarDefault" departLane="random" />
	<vehicle id="v228" depart="181" route="sr461" type="CarDefault" departLane="random" />
	<vehicle id="v57" depart="181.91" route="sr460" type="CarDefault" departLane="random" />
	<vehicle id="v557" depart="182" route="sr463" type="CarDefault" departLane="random" />
	<vehicle id="v351" depart="182.81" route="sr462" type="CarDefault" departLane="random" />
	<vehicle id="v232" depart="183" route="sr461" type="CarDefault" departLane="random" />
	<vehicle id="v825" depart="183" route="sr464" type="CarDefault" departLane="random" />
	<vehicle id="v58" depart="185.11" route="sr460" type="CarDefault" departLane="random" />
	<vehicle id="v820" depart="185.19" route="sr464" type="CarDefault" departLane="random" />
	<vehicle id="v230" depart="186" route="sr461" type="CarDefault" departLane="random" />
	<vehicle id="v560" depart="187" route="sr463" type="CarDefault" departLane="random" />
	<vehicle id="v352" depart="187.5" route="sr462" type="CarDefault" departLane="random" />
	<vehicle id="v59" depart="188.3" route="sr460" type="CarDefault" departLane="random" />
	<vehicle id="v553" depart="189" route="sr463" type="CarDefault" departLane="random" />
	<vehicle id="v60" depart="191.49" route="sr460" type="CarDefault" departLane="random" />
	<vehicle id="v353" depart="192.19" route="sr462" type="CarDefault" departLane="random" />
	<vehicle id="v821" depart="192.59" route="sr464" type="CarDefault" departLane="random" />
	<vehicle id="v552" depart="194" route="sr463" type="CarDefault" departLane="random" />
	<vehicle id="v61" depart="194.68" route="sr460" type="CarDefault" departLane="random" />
	<vehicle id="v231" depart="195" route="sr461" type="CarDefault" departLane="random" />
	<vehicle id="v559" depart="195" route="sr463" type="CarDefault" departLane="random" />
	<vehicle id="v561" depart="195" route="sr463" type="CarDefault" departLane="random" />
	<vehicle id="v556" depart="196" route="sr463" type="CarDefault" departLane="random" />
	<vehicle id="v558" depart="196" route="sr463" type="CarDefault" departLane="random" />
	<vehicle id="v354" depart="196.88" route="sr462" type="CarDefault" departLane="random" />
	<vehicle id="v62" depart="197.87" route="sr460" type="CarDefault" departLane="random" />
	<vehicle id="v554" depart="198" route="sr463" type="CarDefault" departLane="random" />
	<vehicle id="v229" depart="199" route="sr461" type="CarDefault" departLane="random" />
	<vehicle id="v822" depart="200.0" route="sr464" type="CarDefault" departLane="random" />
	<vehicle id="v829" depart="200.0" route="sr464" type="CarDefault" departLane="random" />
	<vehicle id="v63" depart="201.06" route="sr460" type="CarDefault" departLane="random" />
	<vehicle id="v355" depart="201.56" route="sr462" type="CarDefault" departLane="random" />
	<vehicle id="v235" depart="202" route="sr461" type="CarDefault" departLane="random" />
	<vehicle id="v563" depart="202" route="sr463" type="CarDefault" departLane="random" />
	<vehicle id="v234" depart="203" route="sr461" type="CarDefault" departLane="random" />
	<vehicle id="v569" depart="203" route="sr463" type="CarDefault" departLane="random" />
	<vehicle id="v64" depart="204.26" route="sr460" type="CarDefault" departLane="random" />
	<vehicle id="v566" depart="205" route="sr463" type="CarDefault" departLane="random" />
	<vehicle id="v830" depart="205.13" route="sr464" type="CarDefault" departLane="random" />
	<vehicle id="v570" depart="206" route="sr463" type="CarDefault" departLane="random" />
	<vehicle id="v356" depart="206.25" route="sr462" type="CarDefault" departLane="random" />
	<vehicle id="v65" depart="207.45" route="sr460" type="CarDefault" departLane="random" />
	<vehicle id="v236" depart="208" route="sr461" type="CarDefault" departLane="random" />
	<vehicle id="v237" depart="208" route="sr461" type="CarDefault" departLane="random" />
	<vehicle id="v572" depart="209" route="sr463" type="CarDefault" departLane="random" />
	<vehicle id="v562" depart="210" route="sr463" type="CarDefault" departLane="random" />
	<vehicle id="v831" depart="210.26" route="sr464" type="CarDefault" departLane="random" />
	<vehicle id="v66" depart="210.64" route="sr460" type="CarDefault" departLane="random" />
	<vehicle id="v357" depart="210.94" route="sr462" type="CarDefault" departLane="random" />
	<vehicle id="v67" depart="213.83" route="sr460" type="CarDefault" departLane="random" />
	<vehicle id="v565" depart="214" route="sr463" type="CarDefault" departLane="random" />
	<vehicle id="v571" depart="215" route="sr463" type="CarDefault" departLane="random" />
	<vehicle id="v832" depart="215.38" route="sr464" type="CarDefault" departLane="random" />