<?xml version='1.0' encoding='utf-8'?>
<routes>
	<vType accel="3.0" decel="6.0" id="CarDefault" length="5.0" minGap="2.5" maxSpeed="50.0" sigma="0.5" />
	<route id="sr1064" edges="280 65 945 946 943 944 811 928 929 930 935 426 425 424 423 400 399 404 403 82 585 111 563 14 1026 1027 446 445 447 758 759 760" fromJunction="316" toJunction="87" />
	<route id="sr1065" edges="1058 1023 1024 997 707 787 788 863 853 633 634 635 636 864 865 1012 758 759 760" fromJunction="388" toJunction="87" />
	<route id="sr1066" edges="488 975 976 743 744 745 741 742 430 210 12 11 341 627 628 967 968 957 958 511 512 513 890 891 766 1018 1019 1020 1021 1022 898 961 1017 960 706" fromJunction="357" toJunction="248" />
	<vehicle id="v120" depart="0.0" route="sr1065" type="CarDefault" departLane="random" />
	<vehicle id="v183" depart="0.0" route="sr1066" type="CarDefault" departLane="random" />
	<vehicle id="v3" depart="2" route="sr1064" type="CarDefault" departLane="random" />
	<vehicle id="v121" depart="4.84" route="sr1065" type="CarDefault" departLane="random" />
	<vehicle id="v5" depart="5" route="sr1064" type="CarDefault" departLane="random" />
	<vehicle id="v4" depart="6" route="sr1064" type="CarDefault" departLane="random" />
	<vehicle id="v6" depart="7" route="sr1064" type="CarDefault" departLane="random" />
	<vehicle id="v184" depart="7.69" route="sr1066" type="CarDefault" departLane="random" />
	<vehicle id="v2" depart="8" route="sr1064" type="CarDefault" departLane="random" />
	<vehicle id="v122" depart="9.68" route="sr1065" type="CarDefault" departLane="random" />
	<vehicle id="v1" depart="12" route="sr1064" type="CarDefault" departLane="random" />
	<vehicle id="v123" depart="14.52" route="sr1065" type="CarDefault" departLane="random" />
	<vehicle id="v185" depart="15.38" route="sr1066" type="CarDefault" departLane="random" />
	<vehicle id="v0" depart="19" route="sr1064" type="CarDefault" departLane="random" />
	<vehicle id="v124" depart="19.35" route="sr1065" type="CarDefault" departLane="random" />
	<vehicle id="v9" depart="20" route="sr1064" type="CarDefault" departLane="random" />
	<vehicle id="v186" depart="23.08" route="sr1066" type="CarDefault" departLane="random" />
	<vehicle id="v8" depart="24" route="sr1064" type="CarDefault" departLane="random" />
	<vehicle id="v125" depart="24.19" route="sr1065" type="CarDefault" departLane="random" />
	<vehicle id="v7" depart="28" route="sr1064" type="CarDefault" departLane="random" />
	<vehicle id="v14" depart="28" route="sr1064" type="CarDefault" departLane="random" />
	<vehicle id="v11" depart="29" route="sr1064" type="CarDefault" departLane="random" />
	<vehicle id="v126" depart="29.03" route="sr1065" type="CarDefault" departLane="random" />
	<vehicle id="v187" depart="30.77" route="sr1066" type="CarDefault" departLane="random" />
	<vehicle id="v12" depart="31" route="sr1064" type="CarDefault" departLane="random" />
	<vehicle id="v127" depart="33.87" route="sr1065" type="CarDefault" departLane="random" />
	<vehicle id="v13" depart="34" route="sr1064" type="CarDefault" departLane="random" />
	<vehicle id="v16" depart="36" route="sr1064" type="CarDefault" departLane="random" />
	<vehicle id="v10" depart="38" route="sr1064" type="CarDefault" departLane="random" />
	<vehicle id="v188" depart="38.46" route="sr1066" type="CarDefault" departLane="random" />
	<vehicle id="v128" depart="38.71" route="sr1065" type="CarDefault" departLane="random" />
	<vehicle id="v15" depart="39" route="sr1064" type="CarDefault" departLane="random" />
	<vehicle id="v21" depart="41" route="sr1064" type="CarDefault" departLane="random" />
	<vehicle id="v22" depart="42" route="sr1064" type="CarDefault" departLane="random" />
	<vehicle id="v129" depart="43.55" route="sr1065" type="CarDefault" departLane="random" />
	<vehicle id="v20" depart="46" route="sr1064" type="CarDefault" departLane="random" />
	<vehicle id="v189" depart="46.15" route="sr1066" type="CarDefault" departLane="random" />
	<vehicle id="v130" depart="48.39" route="sr1065" type="CarDefault" departLane="random" />
	<vehicle id="v19" depart="51" route="sr1064" type="CarDefault" departLane="random" />
	<vehicle id="v131" depart="53.23" route="sr1065" type="CarDefault" departLane="random" />
	<vehicle id="v190" depart="53.85" route="sr1066" type="CarDefault" departLane="random" />
	<vehicle id="v17" depart="56" route="sr1064" type="CarDefault" departLane="random" />
	<vehicle id="v132" depart="58.06" route="sr1065" type="CarDefault" departLane="random" />
	<vehicle id="v18" depart="59" route="sr1064" type="CarDefault" departLane="random" />
	<vehicle id="v31" depart="60" route="sr1064" type="CarDefault" departLane="random" />
	<vehicle id="v32" depart="60" route="sr1064" type="CarDefault" departLane="random" />
	<vehicle id="v28" depart="61" route="sr1064" type="CarDefault" departLane="random" />
	<vehicle id="v29" depart="61" route="sr1064" type="CarDefault" departLane="random" />
	<vehicle id="v191" depart="61.54" route="sr1066" type="CarDefault" departLane="random" />
	<vehicle id="v133" depart="62.9" route="sr1065" type="CarDefault" departLane="random" />
	<vehicle id="v24" depart="64" route="sr1064" type="CarDefault" departLane="random" />
	<vehicle id="v30" depart="64" route="sr1064" type="CarDefault" departLane="random" />
	<vehicle id="v134" depart="67.74" route="sr1065" type="CarDefault" departLane="random" />
	<vehicle id="v192" depart="69.23" route="sr1066" type="CarDefault" departLane="random" />
	<vehicle id="v135" depart="72.58" route="sr1065" type="CarDefault" departLane="random" />
	<vehicle id="v23" depart="76" route="sr1064" type="CarDefault" departLane="random" />
	<vehicle id="v25" depart="76" route="sr1064" type="CarDefault" departLane="random" />
	<vehicle id="v26" depart="76" route="sr1064" type="CarDefault" departLane="random" />
	<vehicle id="v27" depart="76" route="sr1064" type="CarDefault" departLane="random" />
	<vehicle id="v193" depart="76.92" route="sr1066" type="CarDefault" departLane="random" />
	<vehicle id="v136" depart="77.42" route="sr1065" type="CarDefault" departLane="random" />
	<vehicle id="v34" depart="81" route="sr1064" type="CarDefault" departLane="random" />
	<vehicle id="v197" depart="82" route="sr1066" type="CarDefault" departLane="random" />
	<vehicle id="v137" depart="82.26" route="sr1065" type="CarDefault" departLane="random" />
	<vehicle id="v37" depart="83" route="sr1064" type="CarDefault" departLane="random" />
	<vehicle id="v41" depart="84" route="sr1064" type="CarDefault" departLane="random" />
	<vehicle id="v194" depart="84.62" route="sr1066" type="CarDefault" departLane="random" />
	<vehicle id="v36" depart="85" route="sr1064" type="CarDefault" departLane="random" />
	<vehicle id="v40" depart="85" route="sr1064" type="CarDefault" departLane="random" />
	<vehicle id="v138" depart="87.1" route="sr1065" type="CarDefault" departLane="random" />
	<vehicle id="v38" depart="90" route="sr1064" type="CarDefault" departLane="random" />
	<vehicle id="v35" depart="91" route="sr1064" type="CarDefault" departLane="random" />
	<vehicle id="v139" depart="91.94" route="sr1065" type="CarDefault" departLane="random" />
	<vehicle id="v195" depart="92.31" route="sr1066" type="CarDefault" departLane="random" />
	<vehicle id="v39" depart="96" route="sr1064" type="CarDefault" departLane="random" />
	<vehicle id="v140" depart="96.77" route="sr1065" type="CarDefault" departLane="random" />
	<vehicle id="v198" depart="97" route="sr1066" type="CarDefault" departLane="random" />
	<vehicle id="v33" depart="98" route="sr1064" type="CarDefault" departLane="random" />
	<vehicle id="v48" depart="100" route="sr1064" type="CarDefault" departLane="random" />
	<vehicle id="v196" depart="100.0" route="sr1066" type="CarDefault" departLane="random" />
	<vehicle id="v199" depart="100.0" route="sr1066" type="CarDefault" departLane="random" />
	<vehicle id="v43" depart="101" route="sr1064" type="CarDefault" departLane="random" />
	<vehicle id="v141" depart="101.61" route="sr1065" type="CarDefault" departLane="random" />
	<vehicle id="v44" depart="105" route="sr1064" type="CarDefault" departLane="random" />
	<vehicle id="v50" depart="105" route="sr1064" type="CarDefault" departLane="random" />
	<vehicle id="v200" depart="105.26" route="sr1066" type="CarDefault" departLane="random" />
	<vehicle id="v142" depart="106.45" route="sr1065" type="CarDefault" departLane="random" />
	<vehicle id="v49" depart="108" route="sr1064" type="CarDefault" departLane="random" />
	<vehicle id="v45" depart="110" route="sr1064" type="CarDefault" departLane="random" />
	<vehicle id="v201" depart="110.53" route="sr1066" type="CarDefault" departLane="random" />
	<vehicle id="v143" depart="111.29" route="sr1065" type="CarDefault" departLane="random" />
	<vehicle id="v46" depart="115" route="sr1064" type="CarDefault" departLane="random" />
	<vehicle id="v47" depart="115" route="sr1064" type="CarDefault" departLane="random" />
	<vehicle id="v202" depart="115.79" route="sr1066" type="CarDefault" departLane="random" />
	<vehicle id="v144" depart="116.13" route="sr1065" type="CarDefault" departLane="random" />
	<vehicle id="v42" depart="119" route="sr1064" type="CarDefault" departLane="random" />
	<vehicle id="v145" depart="120.97" route="sr1065" type="CarDefault" departLane="random" />
	<vehicle id="v203" depart="121.05" route="sr1066" type="CarDefault" departLane="random" />
	<vehicle id="v52" depart="122" route="sr1064" type="CarDefault" departLane="random" />
	<vehicle id="v56" depart="122" route="sr1064" type="CarDefault" departLane="random" />
	<vehicle id="v54" depart="123" route="sr1064" type="CarDefault" departLane="random" />
	<vehicle id="v146" depart="125.81" route="sr1065" type="CarDefault" departLane="random" />
	<vehicle id="v59" depart="126" route="sr1064" type="CarDefault" departLane="random" />
	<vehicle id="v204" depart="126.32" route="sr1066" type="CarDefault" departLane="random" />
	<vehicle id="v147" depart="130.65" route="sr1065" type="CarDefault" departLane="random" />
	<vehicle id="v205" depart="131.58" route="sr1066" type="CarDefault" departLane="random" />
	<vehicle id="v51" depart="135" route="sr1064" type="CarDefault" departLane="random" />
	<vehicle id="v148" depart="135.48" route="sr1065" type="CarDefault" departLane="random" />
	<vehicle id="v206" depart="136.84" route="sr1066" type="CarDefault" departLane="random" />
	<vehicle id="v55" depart="138" route="sr1064" type="CarDefault" departLane="random" />
	<vehicle id="v57" depart="138" route="sr1064" type="CarDefault" departLane="random" />
	<vehicle id="v53" depart="139" route="sr1064" type="CarDefault" departLane="random" />
	<vehicle id="v58" depart="139" route="sr1064" type="CarDefault" departLane="random" />
	<vehicle id="v62" depart="140" route="sr1064" type="CarDefault" departLane="random" />
	<vehicle id="v67" depart="140" route="sr1064" type="CarDefault" departLane="random" />
	<vehicle id="v149" depart="140.32" route="sr1065" type="CarDefault" departLane="random" />
	<vehicle id="v207" depart="142.11" route="sr1066" type="CarDefault" departLane="random" />
	<vehicle id="v150" depart="145.16" route="sr1065" type="CarDefault" departLane="random" />
	<vehicle id="v64" depart="146" route="sr1064" type="CarDefault" departLane="random" />
	<vehicle id="v63" depart="147" route="sr1064" type="CarDefault" departLane="random" />
	<vehicle id="v66" depart="147" route="sr1064" type="CarDefault" departLane="random" />
	<vehicle id="v208" depart="147.37" route="sr1066" type="CarDefault" departLane="random" />
	<vehicle id="v61" depart="148" route="sr1064" type="CarDefault" departLane="random" />
	<vehicle id="v68" depart="150" route="sr1064" type="CarDefault" departLane="random" />
	<vehicle id="v151" depart="150.0" route="sr1065" type="CarDefault" departLane="random" />
	<vehicle id="v209" depart="152.63" route="sr1066" type="CarDefault" departLane="random" />
	<vehicle id="v152" depart="154.84" route="sr1065" type="CarDefault" departLane="random" />
	<vehicle id="v65" depart="157" route="sr1064" type="CarDefault" departLane="random" />
	<vehicle id="v210" depart="157.89" route="sr1066" type="CarDefault" departLane="random" />
	<vehicle id="v60" depart="159" route="sr1064" type="CarDefault" departLane="random" />
	<vehicle id="v153" depart="159.68" route="sr1065" type="CarDefault" departLane="random" />
	<vehicle id="v77" depart="161" route="sr1064" type="CarDefault" departLane="random" />
	<vehicle id="v71" depart="162" route="sr1064" type="CarDefault" departLane="random" />
	<vehicle id="v211" depart="163.16" route="sr1066" type="CarDefault" departLane="random" />
	<vehicle id="v154" depart="164.52" route="sr1065" type="CarDefault" departLane="random" />
	<vehicle id="v72" depart="166" route="sr1064" type="CarDefault" departLane="random" />
	<vehicle id="v212" depart="168.42" route="sr1066" type="CarDefault" departLane="random" />
	<vehicle id="v70" depart="169" route="sr1064" type="CarDefault" departLane="random" />
	<vehicle id="v155" depart="169.35" route="sr1065" type="CarDefault" departLane="random" />
	<vehicle id="v219" depart="171" route="sr1066" type="CarDefault" departLane="random" />
	<vehicle id="v220" depart="171" route="sr1066" type="CarDefault" departLane="random" />
	<vehicle id="v213" depart="173.68" route="sr1066" type="CarDefault" departLane="random" />
	<vehicle id="v156" depart="174.19" route="sr1065" type="CarDefault" departLane="random" />
	<vehicle id="v73" depart="175" route="sr1064" type="CarDefault" departLane="random" />
	<vehicle id="v74" depart="175" route="sr1064" type="CarDefault" departLane="random" />
	<vehicle id="v76" depart="176" route="sr1064" type="CarDefault" departLane="random" />
	<vehicle id="v69" depart="177" route="sr1064" type="CarDefault" departLane="random" />
	<vehicle id="v214" depart="178.95" route="sr1066" type="CarDefault" departLane="random" />
	<vehicle id="v75" depart="179" route="sr1064" type="CarDefault" departLane="random" />
	<vehicle id="v222" depart="179" route="sr1066" type="CarDefault" departLane="random" />
	<vehicle id="v157" depart="179.03" route="sr1065" type="CarDefault" departLane="random" />
	<vehicle id="v78" depart="180" route="sr1064" type="CarDefault" departLane="random" />
	<vehicle id="v85" depart="182" route="sr1064" type="CarDefault" departLane="random" />
	<vehicle id="v158" depart="183.87" route="sr1065" type="CarDefault" departLane="random" />
	<vehicle id="v81" depart="184" route="sr1064" type="CarDefault" departLane="random" />
	<vehicle id="v82" depart="184" route="sr1064" type="CarDefault" departLane="random" />
	<vehicle id="v215" depart="184.21" route="sr1066" type="CarDefault" departLane="random" />
	<vehicle id="v223" depart="187" route="sr1066" type="CarDefault" departLane="random" />
	<vehicle id="v224" depart="187" route="sr1066" type="CarDefault" departLane="random" />
	<vehicle id="v83" depart="188" route="sr1064" type="CarDefault" departLane="random" />
	<vehicle id="v84" depart="188" route="sr1064" type="CarDefault" departLane="random" />
	<vehicle id="v159" depart="188.71" route="sr1065" type="CarDefault" departLane="random" />
	<vehicle id="v216" depart="189.47" route="sr1066" type="CarDefault" departLane="random" />
	<vehicle id="v80" depart="191" route="sr1064" type="CarDefault" departLane="random" />
	<vehicle id="v160" depart="193.55" route="sr1065" type="CarDefault" departLane="random" />
	<vehicle id="v225" depart="194" route="sr1066" type="CarDefault" departLane="random" />
	<vehicle id="v217" depart="194.74" route="sr1066" type="CarDefault" departLane="random" />
	<vehicle id="v79" depart="195" route="sr1064" type="CarDefault" departLane="random" />
	<vehicle id="v221" depart="195" route="sr1066" type="CarDefault" departLane="random" />
	<vehicle id="v161" depart="198.39" route="sr1065" type="CarDefault" departLane="random" />
	<vehicle id="v91" depart="200" route="sr1064" type="CarDefault" departLane="random" />
	<vehicle id="v218" depart="200.0" route="sr1066" type="CarDefault" departLane="random" />
	<vehicle id="v226" depart="200.0" route="sr1066" type="CarDefault" departLane="random" />
	<vehicle id="v89" depart="202" route="sr1064" type="CarDefault" departLane="random" />
	<vehicle id="v227" depart="203.12" route="sr1066" type="CarDefault" departLane="random" />
	<vehicle id="v162" depart="203.23" route="sr1065" type="CarDefault" departLane="random" />
	<vehicle id="v228" depart="206.25" route="sr1066" type="CarDefault" departLane="random" />
	<vehicle id="v163" depart="208.06" route="sr1065" type="CarDefault" departLane="random" />
	<vehicle id="v229" depart="209.38" route="sr1066" type="CarDefault" departLane="random" />
	<vehicle id="v230" depart="212.5" route="sr1066" type="CarDefault" departLane="random" />
	<vehicle id="v164" depart="212.9" route="sr1065" type="CarDefault" departLane="random" />
	<vehicle id="v87" depart="215" route="sr1064" type="CarDefault" departLane="random" />
	<vehicle id="v88" depart="215" route="sr1064" type="CarDefault" departLane="random" />
	<vehicle id="v231" depart="215.62" route="sr1066" type="CarDefault" departLane="random" />
	<vehicle id="v165" depart="217.74" route="sr1065" type="CarDefault" departLane="random" />
	<vehicle id="v86" depart="218" route="sr1064" type="CarDefault" departLane="random" />
	<vehicle id="v232" depart="218.75" route="sr1066" type="CarDefault" departLane="random" />
	<vehicle id="v90" depart="219" route="sr1064" type="CarDefault" departLane="random" />
	<vehicle id="v92" depart="219" route="sr1064" type="CarDefault" departLane="random" />
	<vehicle id="v233" depart="221.88" route="sr1066" type="CarDefault" departLane="random" />
	<vehicle id="v100" depart="222" route="sr1064" type="CarDefault" departLane="random" />
	<vehicle id="v166" depart="222.58" route="sr1065" type="CarDefault" departLane="random" />
	<vehicle id="v96" depart="223" route="sr1064" type="CarDefault" departLane="random" />
	<vehicle id="v97" depart="225" route="sr1064" type="CarDefault" departLane="random" />
	<vehicle id="v234" depart="225.0" route="sr1066" type="CarDefault" departLane="random" />
	<vehicle id="v95" depart="227" route="sr1064" type="CarDefault" departLane="random" />
	<vehicle id="v98" depart="227" route="sr1064" type="CarDefault" departLane="random" />
	<vehicle id="v167" depart="227.42" route="sr1065" type="CarDefault" departLane="random" />
	<vehicle id="v235" depart="228.12" route="sr1066" type="CarDefault" departLane="random" />
	<vehicle id="v93" depart="230" route="sr1064" type="CarDefault" departLane="random" />
	<vehicle id="v236" depart="231.25" route="sr1066" type="CarDefault" departLane="random" />
	<vehicle id="v168" depart="232.26" route="sr1065" type="CarDefault" departLane="random" />
	<vehicle id="v237" depart="234.38" route="sr1066" type="CarDefault" departLane="random" />
	<vehicle id="v101" depart="235" route="sr1064" type="CarDefault" departLane="random" />
	<vehicle id="v94" depart="236" route="sr1064" type="CarDefault" departLane="random" />
	<vehicle id="v169" depart="237.1" route="sr1065" type="CarDefault" departLane="random" />
	<vehicle id="v238" depart="237.5" route="sr1066" type="CarDefault" departLane="random" />
	<vehicle id="v99" depart="239" route="sr1064" type="CarDefault" departLane="random" />
	<vehicle id="v239" depart="240.62" route="sr1066" type="CarDefault" departLane="random" />
	<vehicle id="v106" depart="241" route="sr1064" type="CarDefault" departLane="random" />
	<vehicle id="v170" depart="241.94" route="sr1065" type="CarDefault" departLane="random" />
	<vehicle id="v102" depart="242" route="sr1064" type="CarDefault" departLane="random" />
	<vehicle id="v107" depart="242" route="sr1064" type="CarDefault" departLane="random" />
	<vehicle id="v240" depart="243.75" route="sr1066" type="CarDefault" departLane="random" />
	<vehicle id="v171" depart="246.77" route="sr1065" type="CarDefault" departLane="random" />
	<vehicle id="v241" depart="246.88" route="sr1066" type="CarDefault" departLane="random" />
	<vehicle id="v242" depart="250.0" route="sr1066" type="CarDefault" departLane="random" />
	<vehicle id="v172" depart="251.61" route="sr1065" type="CarDefault" departLane="random" />
	<vehicle id="v104" depart="253" route="sr1064" type="CarDefault" departLane="random" />
	<vehicle id="v243" depart="253.12" route="sr1066" type="CarDefault" departLane="random" />
	<vehicle id="v244" depart="256.25" route="sr1066" type="CarDefault" departLane="random" />
	<vehicle id="v173" depart="256.45" route="sr1065" type="CarDefault" departLane="random" />
	<vehicle id="v103" depart="257" route="sr1064" type="CarDefault" departLane="random" />
	<vehicle id="v105" depart="257" route="sr1064" type="CarDefault" departLane="random" />
	<vehicle id="v259" depart="257" route="sr1066" type="CarDefault" departLane="random" />
	<vehicle id="v245" depart="259.38" route="sr1066" type="CarDefault" departLane="random" />
	<vehicle id="v111" depart="260" route="sr1064" type="CarDefault" departLane="random" />
	<vehicle id="v113" depart="260" route="sr1064" type="CarDefault" departLane="random" />
	<vehicle id="v174" depart="261.29" route="sr1065" type="CarDefault" departLane="random" />
	<vehicle id="v246" depart="262.5" route="sr1066" type="CarDefault" departLane="random" />
	<vehicle id="v110" depart="263" route="sr1064" type="CarDefault" departLane="random" />
	<vehicle id="v112" depart="263" route="sr1064" type="CarDefault" departLane="random" />
	<vehicle id="v247" depart="265.62" route="sr1066" type="CarDefault" departLane="random" />
	<vehicle id="v175" depart="266.13" route="sr1065" type="CarDefault" departLane="random" />
	<vehicle id="v109" depart="268" route="sr1064" type="CarDefault" departLane="random" />
	<vehicle id="v248" depart="268.75" route="sr1066" type="CarDefault" departLane="random" />
	<vehicle id="v263" depart="270" route="sr1066" type="CarDefault" departLane="random" />
	<vehicle id="v176" depart="270.97" route="sr1065" type="CarDefault" departLane="random" />
	<vehicle id="v249" depart="271.88" route="sr1066" type="CarDefault" departLane="random" />
	<vehicle id="v108" depart="275" route="sr1064" type="CarDefault" departLane="random" />
	<vehicle id="v250" depart="275.0" route="sr1066" type="CarDefault" departLane="random" />
	<vehicle id="v177" depart="275.81" route="sr1065" type="CarDefault" departLane="random" />
	<vehicle id="v260" depart="276" route="sr1066" type="CarDefault" departLane="random" />
	<vehicle id="v261" depart="276" route="sr1066" type="CarDefault" departLane="random" />
	<vehicle id="v266" depart="277" route="sr1066" type="CarDefault" departLane="random" />
	<vehicle id="v251" depart="278.12" route="sr1066" type="CarDefault" departLane="random" />
	<vehicle id="v264" depart="279" route="sr1066" type="CarDefault" departLane="random" />
	<vehicle id="v178" depart="280.65" route="sr1065" type="CarDefault" departLane="random" />
	<vehicle id="v252" depart="281.25" route="sr1066" type="CarDefault" departLane="random" />
	<vehicle id="v119" depart="282" route="sr1064" type="CarDefault" departLane="random" />
	<vehicle id="v265" depart="282" route="sr1066" type="CarDefault" departLane="random" />
	<vehicle id="v262" depart="283" route="sr1066" type="CarDefault" departLane="random" />
	<vehicle id="v253" depart="284.38" route="sr1066" type="CarDefault" departLane="random" />
	<vehicle id="v179" depart="285.48" route="sr1065" type="CarDefault" departLane="random" />
	<vehicle id="v118" depart="286" route="sr1064" type="CarDefault" departLane="random" />
	<vehicle id="v117" depart="287" route="sr1064" type="CarDefault" departLane="random" />
	<vehicle id="v254" depart="287.5" route="sr1066" type="CarDefault" departLane="random" />
	<vehicle id="v180" depart="290.32" route="sr1065" type="CarDefault" departLane="random" />
	<vehicle id="v255" depart="290.62" route="sr1066" type="CarDefault" departLane="random" />
	<vehicle id="v114" depart="293" route="sr1064" type="CarDefault" departLane="random" />
	<vehicle id="v256" depart="293.75" route="sr1066" type="CarDefault" departLane="random" />
	<vehicle id="v115" depart="295" route="sr1064" type="CarDefault" departLane="random" />
	<vehicle id="v181" depart="295.16" route="sr1065" type="CarDefault" departLane="random" />
	<vehicle id="v257" depart="296.88" route="sr1066" type="CarDefault" departLane="random" />
	<vehicle id="v116" depart="299" route="sr1064" type="CarDefault" departLane="random" />
	<vehicle id="v182" depart="300.0" route="sr1065" type="CarDefault" departLane="random" />
	<vehicle id="v258" depart="300.0" route="sr1066" type="CarDefault" departLane="random" />
</routes>