<?xml version="1.0" encoding="UTF-8"?>

<!-- generated on 2022-10-07 16:12:36 by Eclipse SUMO netconvert Version 1.12.0
<configuration xmlns:xsi="http://www.w3.org/2001/XMLSchema-instance" xsi:noNamespaceSchemaLocation="http://sumo.dlr.de/xsd/netconvertConfiguration.xsd">

    <input>
        <sumo-net-file value="/home/svadlmat/UTC/utc/data/maps/sumo/Sydney.net.xml"/>
    </input>

    <output>
        <output-file value="/home/svadlmat/UTC/utc/data/scenarios/16_12_09_test/maps/networks/16_12_09_test_similarity_maximal_similarity_sg.net.xml"/>
    </output>

    <processing>
        <geometry.min-radius.fix.railways value="false"/>
        <geometry.max-grade.fix value="false"/>
        <offset.disable-normalization value="true"/>
        <lefthand value="false"/>
    </processing>

    <edge_removal>
        <keep-edges.explicit value="645,658,312,990,502,811,587,399,957,97,424,741,1003,563,1030,681,5,403,415,619,17,292,699,708,745,932,404,878,285,19,10,766,538,375,1021,796,144,407,248,449,541,698,633,978,426,942,209,372,762,968,1022,315,83,155,571,7,865,1032,659,709,649,795,1024,500,210,250,338,867,954,1006,152,249,1013,621,617,192,890,416,656,891,417,448,131,663,253,311,483,494,266,366,712,279,146,148,1004,267,872,928,961,214,946,763,806,1026,1041,15,12,127,323,752,244,115,283,446,898,278,145,228,147,339,21,124,967,972,759,1023,487,480,340,644,989,1028,770,356,284,53,706,837,180,934,976,224,161,863,286,336,69,1027,82,853,945,997,111,484,482,230,1031,641,985,969,608,341,65,864,317,232,357,513,642,758,471,585,618,3,334,743,237,367,922,944,924,475,114,1038,262,959,975,129,156,812,457,710,769,792,133,445,923,933,714,1018,504,55,628,143,332,269,290,746,866,427,889,960,112,886,935,157,875,331,345,549,768,485,742,635,910,627,107,236,535,333,512,400,16,54,511,252,609,371,943,126,1058,787,1002,636,447,977,423,791,657,707,14,428,280,9,233,430,123,56,18,643,655,130,634,479,135,984,958,1017,52,1005,760,1019,335,488,988,1020,680,125,136,342,425,245,831,885,51,832,189,20,134,744,11,788,305,92,93,1007,1012,38,433,970,774,1010"/>
    </edge_removal>

    <junctions>
        <no-turnarounds value="true"/>
        <junctions.corner-detail value="5"/>
        <junctions.limit-turn-speed value="5.5"/>
        <rectangular-lane-cut value="false"/>
    </junctions>

    <pedestrian>
        <walkingareas value="false"/>
    </pedestrian>

    <report>
        <aggregate-warnings value="5"/>
    </report>

</configuration>
-->

<net version="1.9" junctionCornerDetail="5" limitTurnSpeed="5.50" xmlns:xsi="http://www.w3.org/2001/XMLSchema-instance" xsi:noNamespaceSchemaLocation="http://sumo.dlr.de/xsd/net_file.xsd">

    <location netOffset="-336586.08,3754670.31" convBoundary="0.00,12.34,2341.18,2154.71" origBoundary="151.232525,-33.920080,151.266296,-33.899237" projParameter="+proj=utm +zone=56 +ellps=WGS84 +datum=WGS84 +units=m +no_defs"/>

    <type id="highway.bridleway" priority="1" numLanes="1" speed="2.78" allow="pedestrian" oneway="1" width="2.00"/>
    <type id="highway.bus_guideway" priority="1" numLanes="1" speed="27.78" allow="bus" oneway="1"/>
    <type id="highway.cycleway" priority="1" numLanes="1" speed="8.33" allow="bicycle" oneway="0" width="1.00"/>
    <type id="highway.footway" priority="1" numLanes="1" speed="2.78" allow="pedestrian" oneway="1" width="2.00"/>
    <type id="highway.ford" priority="1" numLanes="1" speed="2.78" allow="army" oneway="0"/>
    <type id="highway.living_street" priority="2" numLanes="1" speed="2.78" disallow="tram rail_urban rail rail_electric rail_fast ship" oneway="0"/>
    <type id="highway.motorway" priority="14" numLanes="2" speed="39.44" allow="private emergency authority army vip passenger hov taxi bus coach delivery truck trailer motorcycle evehicle custom1 custom2" oneway="1"/>
    <type id="highway.motorway_link" priority="9" numLanes="1" speed="22.22" allow="private emergency authority army vip passenger hov taxi bus coach delivery truck trailer motorcycle evehicle custom1 custom2" oneway="1"/>
    <type id="highway.path" priority="1" numLanes="1" speed="2.78" allow="pedestrian bicycle" oneway="0" width="2.00"/>
    <type id="highway.pedestrian" priority="1" numLanes="1" speed="2.78" allow="pedestrian" oneway="1" width="2.00"/>
    <type id="highway.primary" priority="12" numLanes="2" speed="27.78" disallow="tram rail_urban rail rail_electric rail_fast ship" oneway="0"/>
    <type id="highway.primary_link" priority="7" numLanes="1" speed="22.22" disallow="tram rail_urban rail rail_electric rail_fast ship" oneway="0"/>
    <type id="highway.raceway" priority="15" numLanes="2" speed="83.33" allow="vip" oneway="0"/>
    <type id="highway.residential" priority="3" numLanes="1" speed="13.89" disallow="tram rail_urban rail rail_electric rail_fast ship" oneway="0"/>
    <type id="highway.secondary" priority="11" numLanes="1" speed="27.78" disallow="tram rail_urban rail rail_electric rail_fast ship" oneway="0"/>
    <type id="highway.secondary_link" priority="6" numLanes="1" speed="22.22" disallow="tram rail_urban rail rail_electric rail_fast ship" oneway="0"/>
    <type id="highway.service" priority="1" numLanes="1" speed="5.56" allow="pedestrian delivery bicycle" oneway="0"/>
    <type id="highway.stairs" priority="1" numLanes="1" speed="1.39" allow="pedestrian" oneway="1" width="2.00"/>
    <type id="highway.step" priority="1" numLanes="1" speed="1.39" allow="pedestrian" oneway="1" width="2.00"/>
    <type id="highway.steps" priority="1" numLanes="1" speed="1.39" allow="pedestrian" oneway="1" width="2.00"/>
    <type id="highway.tertiary" priority="10" numLanes="1" speed="22.22" disallow="tram rail_urban rail rail_electric rail_fast ship" oneway="0"/>
    <type id="highway.tertiary_link" priority="5" numLanes="1" speed="22.22" disallow="tram rail_urban rail rail_electric rail_fast ship" oneway="0"/>
    <type id="highway.track" priority="1" numLanes="1" speed="5.56" allow="pedestrian motorcycle moped bicycle" oneway="0"/>
    <type id="highway.trunk" priority="13" numLanes="2" speed="27.78" disallow="pedestrian bicycle tram rail_urban rail rail_electric rail_fast ship" oneway="0"/>
    <type id="highway.trunk_link" priority="8" numLanes="1" speed="22.22" disallow="pedestrian bicycle tram rail_urban rail rail_electric rail_fast ship" oneway="0"/>
    <type id="highway.unclassified" priority="4" numLanes="1" speed="13.89" disallow="tram rail_urban rail rail_electric rail_fast ship" oneway="0"/>
    <type id="highway.unsurfaced" priority="1" numLanes="1" speed="8.33" disallow="tram rail_urban rail rail_electric rail_fast ship" oneway="0"/>
    <type id="railway.highspeed" priority="21" numLanes="1" speed="69.44" allow="rail_fast" oneway="1"/>
    <type id="railway.light_rail" priority="19" numLanes="1" speed="27.78" allow="rail_urban" oneway="1"/>
    <type id="railway.preserved" priority="16" numLanes="1" speed="27.78" allow="rail" oneway="1"/>
    <type id="railway.rail" priority="20" numLanes="1" speed="44.44" allow="rail" oneway="1"/>
    <type id="railway.subway" priority="18" numLanes="1" speed="27.78" allow="rail_urban" oneway="1"/>
    <type id="railway.tram" priority="17" numLanes="1" speed="13.89" allow="tram" oneway="1"/>

    <edge id=":1_0" function="internal">
        <lane id=":1_0_0" index="0" disallow="tram rail_urban rail rail_electric rail_fast ship" speed="3.93" length="3.39" shape="1576.08,1031.10 1575.09,1031.15 1574.45,1030.85 1574.16,1030.20 1574.22,1029.21"/>
    </edge>
    <edge id=":101_0" function="internal">
        <lane id=":101_0_0" index="0" disallow="tram rail_urban rail rail_electric rail_fast ship" speed="3.90" length="2.59" shape="1700.83,590.71 1701.50,590.50 1701.95,590.13 1702.17,589.58 1702.16,588.87"/>
    </edge>
    <edge id=":102_0" function="internal">
        <lane id=":102_0_0" index="0" disallow="tram rail_urban rail rail_electric rail_fast ship" speed="6.07" length="7.88" shape="1142.76,480.26 1142.84,482.43 1142.21,484.09 1140.86,485.23 1138.79,485.87"/>
    </edge>
    <edge id=":102_1" function="internal">
        <lane id=":102_1_0" index="0" disallow="tram rail_urban rail rail_electric rail_fast ship" speed="3.65" length="1.44" shape="1142.76,480.26 1142.19,481.59"/>
    </edge>
    <edge id=":102_4" function="internal">
        <lane id=":102_4_0" index="0" disallow="tram rail_urban rail rail_electric rail_fast ship" speed="3.65" length="3.23" shape="1142.19,481.59 1141.47,482.13 1140.61,481.88 1139.61,480.84"/>
    </edge>
    <edge id=":102_2" function="internal">
        <lane id=":102_2_0" index="0" disallow="tram rail_urban rail rail_electric rail_fast ship" speed="3.90" length="2.63" shape="1138.29,482.71 1138.98,482.50 1139.43,482.12 1139.64,481.57 1139.61,480.84"/>
    </edge>
    <edge id=":102_3" function="internal">
        <lane id=":102_3_0" index="0" disallow="tram rail_urban rail rail_electric rail_fast ship" speed="3.65" length="1.30" shape="1138.29,482.71 1139.47,483.26"/>
    </edge>
    <edge id=":102_5" function="internal">
        <lane id=":102_5_0" index="0" disallow="tram rail_urban rail rail_electric rail_fast ship" speed="3.65" length="3.37" shape="1139.47,483.26 1139.60,483.32 1140.12,484.04 1139.85,484.90 1138.79,485.87"/>
    </edge>
    <edge id=":103_0" function="internal">
        <lane id=":103_0_0" index="0" disallow="tram rail_urban rail rail_electric rail_fast ship" speed="13.89" length="0.30" shape="2201.50,247.95 2201.20,248.00"/>
    </edge>
    <edge id=":104_0" function="internal">
        <lane id=":104_0_0" index="0" disallow="tram rail_urban rail rail_electric rail_fast ship" speed="6.53" length="9.06" shape="1534.39,391.73 1533.65,389.37 1532.33,387.81 1530.43,387.05 1527.94,387.09"/>
    </edge>
    <edge id=":104_1" function="internal">
        <lane id=":104_1_0" index="0" disallow="tram rail_urban rail rail_electric rail_fast ship" speed="13.89" length="14.40" shape="1534.39,391.73 1532.09,377.52"/>
    </edge>
    <edge id=":104_2" function="internal">
        <lane id=":104_2_0" index="0" disallow="tram rail_urban rail rail_electric rail_fast ship" speed="7.99" length="4.06" shape="1535.25,377.01 1535.32,380.91 1535.26,381.06"/>
    </edge>
    <edge id=":104_3" function="internal">
        <lane id=":104_3_0" index="0" disallow="tram rail_urban rail rail_electric rail_fast ship" speed="3.65" length="1.44" shape="1535.25,377.01 1534.65,378.32"/>
    </edge>
    <edge id=":104_6" function="internal">
        <lane id=":104_6_0" index="0" disallow="tram rail_urban rail rail_electric rail_fast ship" speed="7.99" length="10.15" shape="1535.26,381.06 1534.13,383.89 1531.66,385.95 1527.94,387.09"/>
    </edge>
    <edge id=":104_7" function="internal">
        <lane id=":104_7_0" index="0" disallow="tram rail_urban rail rail_electric rail_fast ship" speed="3.65" length="3.23" shape="1534.65,378.32 1533.93,378.85 1533.07,378.58 1532.09,377.52"/>
    </edge>
    <edge id=":104_4" function="internal">
        <lane id=":104_4_0" index="0" disallow="tram rail_urban rail rail_electric rail_fast ship" speed="6.50" length="9.03" shape="1527.44,383.92 1529.81,383.20 1531.38,381.89 1532.14,380.00 1532.09,377.52"/>
    </edge>
    <edge id=":104_5" function="internal">
        <lane id=":104_5_0" index="0" disallow="tram rail_urban rail rail_electric rail_fast ship" speed="3.65" length="4.67" shape="1527.44,383.92 1528.75,384.53 1529.27,385.26 1529.00,386.11 1527.94,387.09"/>
    </edge>
    <edge id=":105_0" function="internal">
        <lane id=":105_0_0" index="0" disallow="tram rail_urban rail rail_electric rail_fast ship" speed="13.89" length="10.82" shape="2228.62,381.78 2217.94,383.54"/>
    </edge>
    <edge id=":105_1" function="internal">
        <lane id=":105_1_0" index="0" disallow="tram rail_urban rail rail_electric rail_fast ship" speed="6.56" length="8.84" shape="2228.62,381.78 2226.24,381.82 2224.38,381.09 2223.04,379.57 2222.20,377.28"/>
    </edge>
    <edge id=":107_0" function="internal">
        <lane id=":107_0_0" index="0" disallow="tram rail_urban rail rail_electric rail_fast ship" speed="13.89" length="0.29" shape="948.66,199.83 948.37,199.89"/>
    </edge>
    <edge id=":107_1" function="internal">
        <lane id=":107_1_0" index="0" disallow="tram rail_urban rail rail_electric rail_fast ship" speed="3.65" length="2.34" shape="948.66,199.83 947.33,199.27 946.79,198.57"/>
    </edge>
    <edge id=":107_4" function="internal">
        <lane id=":107_4_0" index="0" disallow="tram rail_urban rail rail_electric rail_fast ship" speed="3.65" length="2.34" shape="946.79,198.57 947.03,197.70 948.05,196.69"/>
    </edge>
    <edge id=":107_2" function="internal">
        <lane id=":107_2_0" index="0" disallow="tram rail_urban rail rail_electric rail_fast ship" speed="13.89" length="0.31" shape="947.75,196.75 948.05,196.69"/>
    </edge>
    <edge id=":107_3" function="internal">
        <lane id=":107_3_0" index="0" disallow="tram rail_urban rail rail_electric rail_fast ship" speed="3.65" length="2.34" shape="947.75,196.75 949.08,197.30 949.63,198.01"/>
    </edge>
    <edge id=":107_5" function="internal">
        <lane id=":107_5_0" index="0" disallow="tram rail_urban rail rail_electric rail_fast ship" speed="3.65" length="2.34" shape="949.63,198.01 949.40,198.87 948.37,199.89"/>
    </edge>
    <edge id=":108_0" function="internal">
        <lane id=":108_0_0" index="0" disallow="tram rail_urban rail rail_electric rail_fast ship" speed="13.89" length="10.68" shape="2321.54,222.48 2323.11,233.04"/>
    </edge>
    <edge id=":108_1" function="internal">
        <lane id=":108_1_0" index="0" disallow="tram rail_urban rail rail_electric rail_fast ship" speed="6.57" length="8.75" shape="2321.54,222.48 2321.53,224.82 2320.76,226.65 2319.25,227.97 2316.97,228.78"/>
    </edge>
    <edge id=":109_0" function="internal">
        <lane id=":109_0_0" index="0" disallow="tram rail_urban rail rail_electric rail_fast ship" speed="6.08" length="7.78" shape="1135.06,456.23 1134.98,454.10 1135.59,452.45 1136.92,451.30 1138.95,450.63"/>
    </edge>
    <edge id=":109_1" function="internal">
        <lane id=":109_1_0" index="0" disallow="tram rail_urban rail rail_electric rail_fast ship" speed="3.65" length="1.44" shape="1135.06,456.23 1135.63,454.91"/>
    </edge>
    <edge id=":109_4" function="internal">
        <lane id=":109_4_0" index="0" disallow="tram rail_urban rail rail_electric rail_fast ship" speed="3.65" length="3.23" shape="1135.63,454.91 1136.35,454.37 1137.20,454.61 1138.21,455.65"/>
    </edge>
    <edge id=":109_2" function="internal">
        <lane id=":109_2_0" index="0" disallow="tram rail_urban rail rail_electric rail_fast ship" speed="3.90" length="2.59" shape="1139.50,453.78 1138.83,454.01 1138.39,454.39 1138.18,454.94 1138.21,455.65"/>
    </edge>
    <edge id=":109_3" function="internal">
        <lane id=":109_3_0" index="0" disallow="tram rail_urban rail rail_electric rail_fast ship" speed="3.65" length="1.30" shape="1139.50,453.78 1138.31,453.26"/>
    </edge>
    <edge id=":109_5" function="internal">
        <lane id=":109_5_0" index="0" disallow="tram rail_urban rail rail_electric rail_fast ship" speed="3.65" length="3.37" shape="1138.31,453.26 1138.18,453.20 1137.65,452.49 1137.90,451.63 1138.95,450.63"/>
    </edge>
    <edge id=":110_0" function="internal">
        <lane id=":110_0_0" index="0" disallow="tram rail_urban rail rail_electric rail_fast ship" speed="13.89" length="0.10" shape="1704.03,238.50 1704.03,238.50"/>
    </edge>
    <edge id=":112_0" function="internal">
        <lane id=":112_0_0" index="0" disallow="tram rail_urban rail rail_electric rail_fast ship" speed="6.60" length="9.13" shape="1406.99,310.43 1406.20,308.04 1404.86,306.45 1402.95,305.66 1400.49,305.68"/>
    </edge>
    <edge id=":112_1" function="internal">
        <lane id=":112_1_0" index="0" disallow="tram rail_urban rail rail_electric rail_fast ship" speed="7.98" length="14.25" shape="1406.99,310.43 1406.85,306.53 1408.00,303.53 1410.44,301.44 1414.17,300.26"/>
    </edge>
    <edge id=":112_2" function="internal">
        <lane id=":112_2_0" index="0" disallow="tram rail_urban rail rail_electric rail_fast ship" speed="3.65" length="4.67" shape="1406.99,310.43 1407.56,309.11 1408.28,308.58 1409.14,308.83 1410.14,309.87"/>
    </edge>
    <edge id=":112_3" function="internal">
        <lane id=":112_3_0" index="0" disallow="tram rail_urban rail rail_electric rail_fast ship" speed="6.48" length="9.03" shape="1414.69,303.42 1412.32,304.16 1410.78,305.49 1410.05,307.39 1410.14,309.87"/>
    </edge>
    <edge id=":112_4" function="internal">
        <lane id=":112_4_0" index="0" disallow="tram rail_urban rail rail_electric rail_fast ship" speed="13.89" length="14.38" shape="1414.69,303.42 1400.49,305.68"/>
    </edge>
    <edge id=":112_5" function="internal">
        <lane id=":112_5_0" index="0" disallow="tram rail_urban rail rail_electric rail_fast ship" speed="3.65" length="1.44" shape="1414.69,303.42 1413.37,302.82"/>
    </edge>
    <edge id=":112_9" function="internal">
        <lane id=":112_9_0" index="0" disallow="tram rail_urban rail rail_electric rail_fast ship" speed="3.65" length="3.23" shape="1413.37,302.82 1412.85,302.10 1413.11,301.24 1414.17,300.26"/>
    </edge>
    <edge id=":112_6" function="internal">
        <lane id=":112_6_0" index="0" disallow="tram rail_urban rail rail_electric rail_fast ship" speed="13.89" length="14.35" shape="1400.00,302.52 1414.17,300.26"/>
    </edge>
    <edge id=":112_7" function="internal">
        <lane id=":112_7_0" index="0" disallow="tram rail_urban rail rail_electric rail_fast ship" speed="8.08" length="3.99" shape="1400.00,302.52 1403.85,302.49 1403.98,302.54"/>
    </edge>
    <edge id=":112_8" function="internal">
        <lane id=":112_8_0" index="0" disallow="tram rail_urban rail rail_electric rail_fast ship" speed="3.65" length="1.44" shape="1400.00,302.52 1401.31,303.13"/>
    </edge>
    <edge id=":112_10" function="internal">
        <lane id=":112_10_0" index="0" disallow="tram rail_urban rail rail_electric rail_fast ship" speed="8.08" length="10.21" shape="1403.98,302.54 1406.82,303.70 1408.92,306.16 1410.14,309.87"/>
    </edge>
    <edge id=":112_11" function="internal">
        <lane id=":112_11_0" index="0" disallow="tram rail_urban rail rail_electric rail_fast ship" speed="3.65" length="3.23" shape="1401.31,303.13 1401.82,303.86 1401.55,304.71 1400.49,305.68"/>
    </edge>
    <edge id=":113_0" function="internal">
        <lane id=":113_0_0" index="0" disallow="tram rail_urban rail rail_electric rail_fast ship" speed="27.78" length="0.30" shape="1489.79,115.20 1489.75,114.90"/>
    </edge>
    <edge id=":114_0" function="internal">
        <lane id=":114_0_0" index="0" disallow="tram rail_urban rail rail_electric rail_fast ship" speed="4.00" length="1.74" shape="2078.36,177.96 2078.16,178.37 2077.89,178.68 2077.53,178.90 2077.10,179.02"/>
    </edge>
    <edge id=":116_0" function="internal">
        <lane id=":116_0_0" index="0" disallow="tram rail_urban rail rail_electric rail_fast ship" speed="13.89" length="0.29" shape="447.16,625.26 447.22,625.54"/>
    </edge>
    <edge id=":117_0" function="internal">
        <lane id=":117_0_0" index="0" disallow="tram rail_urban rail rail_electric rail_fast ship" speed="27.78" length="11.21" shape="1466.16,635.93 1477.06,633.29"/>
    </edge>
    <edge id=":117_1" function="internal">
        <lane id=":117_1_0" index="0" disallow="tram rail_urban rail rail_electric rail_fast ship" speed="6.38" length="9.06" shape="1466.16,635.93 1468.67,635.72 1470.59,636.38 1471.92,637.90 1472.67,640.28"/>
    </edge>
    <edge id=":118_0" function="internal">
        <lane id=":118_0_0" index="0" disallow="tram rail_urban rail rail_electric rail_fast ship" speed="3.97" length="1.91" shape="2087.80,187.57 2087.78,187.07 2087.90,186.63 2088.15,186.26 2088.55,185.95"/>
    </edge>
    <edge id=":119_0" function="internal">
        <lane id=":119_0_0" index="0" disallow="tram rail_urban rail rail_electric rail_fast ship" speed="13.89" length="0.26" shape="1813.76,222.84 1813.50,222.88"/>
    </edge>
    <edge id=":122_0" function="internal">
        <lane id=":122_0_0" index="0" disallow="tram rail_urban rail rail_electric rail_fast ship" speed="3.91" length="2.50" shape="2209.22,317.08 2208.99,316.44 2208.60,316.02 2208.07,315.82 2207.39,315.84"/>
    </edge>
    <edge id=":124_0" function="internal">
        <lane id=":124_0_0" index="0" disallow="tram rail_urban rail rail_electric rail_fast ship" speed="27.78" length="0.30" shape="1387.74,673.85 1387.99,673.69"/>
    </edge>
    <edge id=":127_0" function="internal">
        <lane id=":127_0_0" index="0" disallow="tram rail_urban rail rail_electric rail_fast ship" speed="20.84" length="14.42" shape="1529.55,361.74 1527.33,347.49"/>
    </edge>
    <edge id=":127_1" function="internal">
        <lane id=":127_1_0" index="0" disallow="tram rail_urban rail rail_electric rail_fast ship" speed="7.99" length="14.21" shape="1529.55,361.74 1529.48,357.84 1530.67,354.86 1533.12,352.80 1536.84,351.66"/>
    </edge>
    <edge id=":127_2" function="internal">
        <lane id=":127_2_0" index="0" disallow="tram rail_urban rail rail_electric rail_fast ship" speed="3.65" length="4.67" shape="1529.55,361.74 1530.15,360.43 1530.87,359.90 1531.73,360.17 1532.71,361.23"/>
    </edge>
    <edge id=":127_3" function="internal">
        <lane id=":127_3_0" index="0" disallow="tram rail_urban rail rail_electric rail_fast ship" speed="6.50" length="9.04" shape="1537.35,354.82 1534.98,355.54 1533.42,356.85 1532.66,358.75 1532.71,361.23"/>
    </edge>
    <edge id=":127_4" function="internal">
        <lane id=":127_4_0" index="0" disallow="tram rail_urban rail rail_electric rail_fast ship" speed="7.98" length="14.17" shape="1537.35,354.82 1533.45,354.87 1530.49,353.66 1528.44,351.20 1527.33,347.49"/>
    </edge>
    <edge id=":127_5" function="internal">
        <lane id=":127_5_0" index="0" disallow="tram rail_urban rail rail_electric rail_fast ship" speed="3.65" length="4.67" shape="1537.35,354.82 1536.04,354.22 1535.51,353.49 1535.78,352.64 1536.84,351.66"/>
    </edge>
    <edge id=":129_0" function="internal">
        <lane id=":129_0_0" index="0" disallow="tram rail_urban rail rail_electric rail_fast ship" speed="22.22" length="0.10" shape="1916.35,1532.26 1916.41,1532.31"/>
    </edge>
    <edge id=":129_1" function="internal">
        <lane id=":129_1_0" index="0" disallow="tram rail_urban rail rail_electric rail_fast ship" speed="3.65" length="2.34" shape="1916.35,1532.26 1915.98,1530.87 1916.21,1530.00"/>
    </edge>
    <edge id=":129_4" function="internal">
        <lane id=":129_4_0" index="0" disallow="tram rail_urban rail rail_electric rail_fast ship" speed="3.65" length="2.34" shape="1916.21,1530.00 1917.04,1529.67 1918.47,1529.86"/>
    </edge>
    <edge id=":129_2" function="internal">
        <lane id=":129_2_0" index="0" disallow="tram rail_urban rail rail_electric rail_fast ship" speed="22.22" length="0.10" shape="1918.41,1529.81 1918.47,1529.86"/>
    </edge>
    <edge id=":129_3" function="internal">
        <lane id=":129_3_0" index="0" disallow="tram rail_urban rail rail_electric rail_fast ship" speed="3.65" length="2.34" shape="1918.41,1529.81 1918.85,1531.18 1918.66,1532.06"/>
    </edge>
    <edge id=":129_5" function="internal">
        <lane id=":129_5_0" index="0" disallow="tram rail_urban rail rail_electric rail_fast ship" speed="3.65" length="2.34" shape="1918.66,1532.06 1917.85,1532.43 1916.41,1532.31"/>
    </edge>
    <edge id=":132_0" function="internal">
        <lane id=":132_0_0" index="0" disallow="tram rail_urban rail rail_electric rail_fast ship" speed="27.78" length="10.58" shape="1767.23,1120.44 1765.58,1109.99"/>
    </edge>
    <edge id=":132_1" function="internal">
        <lane id=":132_1_0" index="0" disallow="tram rail_urban rail rail_electric rail_fast ship" speed="3.65" length="4.67" shape="1767.23,1120.44 1767.83,1119.13 1768.56,1118.61 1769.41,1118.88 1770.39,1119.94"/>
    </edge>
    <edge id=":132_2" function="internal">
        <lane id=":132_2_0" index="0" disallow="tram rail_urban rail rail_electric rail_fast ship" speed="27.78" length="11.18" shape="1771.90,1108.99 1771.92,1112.31 1771.17,1114.66 1770.41,1116.91 1770.39,1119.94"/>
    </edge>
    <edge id=":132_3" function="internal">
        <lane id=":132_3_0" index="0" disallow="tram rail_urban rail rail_electric rail_fast ship" speed="3.65" length="4.67" shape="1768.74,1109.49 1768.13,1110.80 1767.41,1111.32 1766.55,1111.05 1765.58,1109.99"/>
    </edge>
    <edge id=":132_4" function="internal">
        <lane id=":132_4_0" index="0" disallow="tram rail_urban rail rail_electric rail_fast ship" speed="6.60" length="8.72" shape="1761.11,1116.37 1763.37,1115.49 1764.86,1114.13 1765.60,1112.30 1765.58,1109.99"/>
    </edge>
    <edge id=":132_5" function="internal">
        <lane id=":132_5_0" index="0" disallow="tram rail_urban rail rail_electric rail_fast ship" speed="7.03" length="11.38" shape="1761.11,1116.37 1764.84,1115.82 1767.62,1116.24 1769.47,1117.61 1770.39,1119.94"/>
    </edge>
    <edge id=":135_0" function="internal">
        <lane id=":135_0_0" index="0" disallow="tram rail_urban rail rail_electric rail_fast ship" speed="3.90" length="2.58" shape="1837.42,1205.36 1837.21,1204.69 1836.83,1204.25 1836.29,1204.03 1835.58,1204.05"/>
    </edge>
    <edge id=":136_0" function="internal">
        <lane id=":136_0_0" index="0" disallow="tram rail_urban rail rail_electric rail_fast ship" speed="22.23" length="7.72" shape="1763.21,1094.62 1761.86,1087.02"/>
    </edge>
    <edge id=":136_1" function="internal">
        <lane id=":136_1_0" index="0" disallow="tram rail_urban rail rail_electric rail_fast ship" speed="22.23" length="8.34" shape="1764.99,1086.37 1765.98,1088.69 1767.35,1090.01 1768.68,1091.33 1769.54,1093.67"/>
        <lane id=":136_1_1" index="1" disallow="tram rail_urban rail rail_electric rail_fast ship" speed="22.23" length="8.34" shape="1764.99,1086.37 1766.38,1094.14"/>
    </edge>
    <edge id=":137_0" function="internal">
        <lane id=":137_0_0" index="0" disallow="tram rail_urban rail rail_electric rail_fast ship" speed="13.89" length="0.30" shape="1722.56,1443.62 1722.85,1443.62"/>
    </edge>
    <edge id=":139_0" function="internal">
        <lane id=":139_0_0" index="0" disallow="tram rail_urban rail rail_electric rail_fast ship" speed="6.73" length="9.24" shape="1978.46,1679.99 1977.64,1677.68 1976.24,1676.13 1974.26,1675.34 1971.70,1675.32"/>
    </edge>
    <edge id=":139_1" function="internal">
        <lane id=":139_1_0" index="0" disallow="tram rail_urban rail rail_electric rail_fast ship" speed="22.22" length="14.32" shape="1978.46,1679.99 1976.07,1665.87"/>
    </edge>
    <edge id=":139_2" function="internal">
        <lane id=":139_2_0" index="0" disallow="tram rail_urban rail rail_electric rail_fast ship" speed="7.97" length="3.92" shape="1979.23,1665.41 1979.24,1669.33"/>
    </edge>
    <edge id=":139_3" function="internal">
        <lane id=":139_3_0" index="0" disallow="tram rail_urban rail rail_electric rail_fast ship" speed="3.65" length="1.44" shape="1979.23,1665.41 1978.61,1666.71"/>
    </edge>
    <edge id=":139_6" function="internal">
        <lane id=":139_6_0" index="0" disallow="tram rail_urban rail rail_electric rail_fast ship" speed="7.97" length="10.34" shape="1979.24,1669.33 1977.99,1672.28 1975.47,1674.28 1971.70,1675.32"/>
    </edge>
    <edge id=":139_7" function="internal">
        <lane id=":139_7_0" index="0" disallow="tram rail_urban rail rail_electric rail_fast ship" speed="3.65" length="3.23" shape="1978.61,1666.71 1977.88,1667.22 1977.03,1666.94 1976.07,1665.87"/>
    </edge>
    <edge id=":139_4" function="internal">
        <lane id=":139_4_0" index="0" disallow="tram rail_urban rail rail_electric rail_fast ship" speed="6.47" length="9.03" shape="1971.29,1672.15 1973.68,1671.49 1975.28,1670.22 1976.07,1668.35 1976.07,1665.87"/>
    </edge>
    <edge id=":139_5" function="internal">
        <lane id=":139_5_0" index="0" disallow="tram rail_urban rail rail_electric rail_fast ship" speed="3.65" length="4.67" shape="1971.29,1672.15 1972.58,1672.79 1973.08,1673.54 1972.78,1674.38 1971.70,1675.32"/>
    </edge>
    <edge id=":145_0" function="internal">
        <lane id=":145_0_0" index="0" disallow="tram rail_urban rail rail_electric rail_fast ship" speed="3.90" length="2.59" shape="1862.52,1367.78 1863.20,1367.57 1863.65,1367.19 1863.86,1366.65 1863.85,1365.94"/>
    </edge>
    <edge id=":148_0" function="internal">
        <lane id=":148_0_0" index="0" disallow="tram rail_urban rail rail_electric rail_fast ship" speed="6.48" length="9.08" shape="1767.17,1447.86 1767.49,1445.37 1768.53,1443.60 1770.27,1442.55 1772.74,1442.22"/>
    </edge>
    <edge id=":148_1" function="internal">
        <lane id=":148_1_0" index="0" disallow="tram rail_urban rail rail_electric rail_fast ship" speed="13.89" length="11.92" shape="1761.47,1442.41 1764.52,1441.80 1766.78,1440.63 1769.22,1439.50 1772.77,1439.02"/>
    </edge>
    <edge id=":153_0" function="internal">
        <lane id=":153_0_0" index="0" disallow="tram rail_urban rail rail_electric rail_fast ship" speed="13.89" length="0.10" shape="512.18,1661.23 512.18,1661.23"/>
    </edge>
    <edge id=":155_0" function="internal">
        <lane id=":155_0_0" index="0" disallow="tram rail_urban rail rail_electric rail_fast ship" speed="15.28" length="0.30" shape="580.31,1195.37 580.60,1195.33"/>
    </edge>
    <edge id=":156_0" function="internal">
        <lane id=":156_0_0" index="0" disallow="tram rail_urban rail rail_electric rail_fast ship" speed="6.51" length="9.03" shape="788.14,1698.27 790.51,1697.56 792.09,1696.27 792.87,1694.38 792.85,1691.91"/>
    </edge>
    <edge id=":156_1" function="internal">