<?xml version="1.0" encoding="UTF-8"?>

<!-- generated on 2022-10-09 18:03:47 by Eclipse SUMO netconvert Version 1.12.0
<configuration xmlns:xsi="http://www.w3.org/2001/XMLSchema-instance" xsi:noNamespaceSchemaLocation="http://sumo.dlr.de/xsd/netconvertConfiguration.xsd">

    <input>
        <sumo-net-file value="/home/svadlmat/UTC/utc/data/maps/sumo/Sydney.net.xml"/>
    </input>

    <output>
        <output-file value="/home/svadlmat/UTC/utc/data/scenarios/test/maps/networks/test_similarity_shortest_length_sg.net.xml"/>
    </output>

    <processing>
        <geometry.min-radius.fix.railways value="false"/>
        <geometry.max-grade.fix value="false"/>
        <offset.disable-normalization value="true"/>
        <lefthand value="false"/>
    </processing>

    <edge_removal>
        <keep-edges.explicit value="748,339,550,494,197,682,287,361,504,508,826,305,166,639,706,908,8,515,891,968,124,889,942,501,793,427,331,371,890,906,867,403,425,53,55,174,484,611,958,907,674,245,924,52,909,252,875,549,764,471,527,657,115,898,147,283,538,144,127,130,98,368,893,416,406,511,638,967,1021,365,1030,428,1009,20,583,86,404,708,56,410,477,1004,796,1002,372,164,811,405,212,894,637,552,366,1010,805,541,915,874,892,99,774,211,897,443,827,131,483,862,17,503,1022,765,84,145,340,594,502,767,148,829,157,525,842,378,512,505,364,62,837,941,244,739,1017,159,962,658,469,1031,13,830,952,554,627,960,387,1019,812,526,926,631,861,553,738,161,1005,175,284,507,755,766,825,588,213,233,916,400,411,18,472,146,251,1020,886,478,506,14,485,285,640,444,38,1018,288,424,520,983,377,253,742,770,379,332,374,426,752,15,656,655,878,931,957,336,367,536,6,83,628,295,747,19,1032,335,376,315,887,615,513,423,551,754,373,994,16,417,407,54,740,953,1029,21,129,510,828,294,90,896,1003,910,963,126,123,954,630,399,433,286,749,810,961,629,481,951,165,509,659,317,369,795,940,415"/>
    </edge_removal>

    <junctions>
        <no-turnarounds value="true"/>
        <junctions.corner-detail value="5"/>
        <junctions.limit-turn-speed value="5.5"/>
        <rectangular-lane-cut value="false"/>
    </junctions>

    <pedestrian>
        <walkingareas value="false"/>
    </pedestrian>

    <report>
        <aggregate-warnings value="5"/>
    </report>

</configuration>
-->

<net version="1.9" junctionCornerDetail="5" limitTurnSpeed="5.50" xmlns:xsi="http://www.w3.org/2001/XMLSchema-instance" xsi:noNamespaceSchemaLocation="http://sumo.dlr.de/xsd/net_file.xsd">

    <location netOffset="-336586.08,3754670.31" convBoundary="75.04,12.34,2481.37,2196.77" origBoundary="151.232525,-33.920080,151.266296,-33.899237" projParameter="+proj=utm +zone=56 +ellps=WGS84 +datum=WGS84 +units=m +no_defs"/>

    <type id="highway.bridleway" priority="1" numLanes="1" speed="2.78" allow="pedestrian" oneway="1" width="2.00"/>
    <type id="highway.bus_guideway" priority="1" numLanes="1" speed="27.78" allow="bus" oneway="1"/>
    <type id="highway.cycleway" priority="1" numLanes="1" speed="8.33" allow="bicycle" oneway="0" width="1.00"/>
    <type id="highway.footway" priority="1" numLanes="1" speed="2.78" allow="pedestrian" oneway="1" width="2.00"/>
    <type id="highway.ford" priority="1" numLanes="1" speed="2.78" allow="army" oneway="0"/>
    <type id="highway.living_street" priority="2" numLanes="1" speed="2.78" disallow="tram rail_urban rail rail_electric rail_fast ship" oneway="0"/>
    <type id="highway.motorway" priority="14" numLanes="2" speed="39.44" allow="private emergency authority army vip passenger hov taxi bus coach delivery truck trailer motorcycle evehicle custom1 custom2" oneway="1"/>
    <type id="highway.motorway_link" priority="9" numLanes="1" speed="22.22" allow="private emergency authority army vip passenger hov taxi bus coach delivery truck trailer motorcycle evehicle custom1 custom2" oneway="1"/>
    <type id="highway.path" priority="1" numLanes="1" speed="2.78" allow="pedestrian bicycle" oneway="0" width="2.00"/>
    <type id="highway.pedestrian" priority="1" numLanes="1" speed="2.78" allow="pedestrian" oneway="1" width="2.00"/>
    <type id="highway.primary" priority="12" numLanes="2" speed="27.78" disallow="tram rail_urban rail rail_electric rail_fast ship" oneway="0"/>
    <type id="highway.primary_link" priority="7" numLanes="1" speed="22.22" disallow="tram rail_urban rail rail_electric rail_fast ship" oneway="0"/>
    <type id="highway.raceway" priority="15" numLanes="2" speed="83.33" allow="vip" oneway="0"/>
    <type id="highway.residential" priority="3" numLanes="1" speed="13.89" disallow="tram rail_urban rail rail_electric rail_fast ship" oneway="0"/>
    <type id="highway.secondary" priority="11" numLanes="1" speed="27.78" disallow="tram rail_urban rail rail_electric rail_fast ship" oneway="0"/>
    <type id="highway.secondary_link" priority="6" numLanes="1" speed="22.22" disallow="tram rail_urban rail rail_electric rail_fast ship" oneway="0"/>
    <type id="highway.service" priority="1" numLanes="1" speed="5.56" allow="pedestrian delivery bicycle" oneway="0"/>
    <type id="highway.stairs" priority="1" numLanes="1" speed="1.39" allow="pedestrian" oneway="1" width="2.00"/>
    <type id="highway.step" priority="1" numLanes="1" speed="1.39" allow="pedestrian" oneway="1" width="2.00"/>
    <type id="highway.steps" priority="1" numLanes="1" speed="1.39" allow="pedestrian" oneway="1" width="2.00"/>
    <type id="highway.tertiary" priority="10" numLanes="1" speed="22.22" disallow="tram rail_urban rail rail_electric rail_fast ship" oneway="0"/>
    <type id="highway.tertiary_link" priority="5" numLanes="1" speed="22.22" disallow="tram rail_urban rail rail_electric rail_fast ship" oneway="0"/>
    <type id="highway.track" priority="1" numLanes="1" speed="5.56" allow="pedestrian motorcycle moped bicycle" oneway="0"/>
    <type id="highway.trunk" priority="13" numLanes="2" speed="27.78" disallow="pedestrian bicycle tram rail_urban rail rail_electric rail_fast ship" oneway="0"/>
    <type id="highway.trunk_link" priority="8" numLanes="1" speed="22.22" disallow="pedestrian bicycle tram rail_urban rail rail_electric rail_fast ship" oneway="0"/>
    <type id="highway.unclassified" priority="4" numLanes="1" speed="13.89" disallow="tram rail_urban rail rail_electric rail_fast ship" oneway="0"/>
    <type id="highway.unsurfaced" priority="1" numLanes="1" speed="8.33" disallow="tram rail_urban rail rail_electric rail_fast ship" oneway="0"/>
    <type id="railway.highspeed" priority="21" numLanes="1" speed="69.44" allow="rail_fast" oneway="1"/>
    <type id="railway.light_rail" priority="19" numLanes="1" speed="27.78" allow="rail_urban" oneway="1"/>
    <type id="railway.preserved" priority="16" numLanes="1" speed="27.78" allow="rail" oneway="1"/>
    <type id="railway.rail" priority="20" numLanes="1" speed="44.44" allow="rail" oneway="1"/>
    <type id="railway.subway" priority="18" numLanes="1" speed="27.78" allow="rail_urban" oneway="1"/>
    <type id="railway.tram" priority="17" numLanes="1" speed="13.89" allow="tram" oneway="1"/>

    <edge id=":101_0" function="internal">
        <lane id=":101_0_0" index="0" disallow="tram rail_urban rail rail_electric rail_fast ship" speed="22.22" length="0.30" shape="1704.65,593.35 1704.35,593.39"/>
    </edge>
    <edge id=":103_0" function="internal">
        <lane id=":103_0_0" index="0" disallow="tram rail_urban rail rail_electric rail_fast ship" speed="6.54" length="8.92" shape="2208.26,246.85 2205.95,247.58 2204.41,248.88 2203.64,250.76 2203.62,253.21"/>
    </edge>
    <edge id=":103_1" function="internal">
        <lane id=":103_1_0" index="0" disallow="tram rail_urban rail rail_electric rail_fast ship" speed="13.89" length="10.98" shape="2208.26,246.85 2197.42,248.62"/>
    </edge>
    <edge id=":104_0" function="internal">
        <lane id=":104_0_0" index="0" disallow="tram rail_urban rail rail_electric rail_fast ship" speed="3.90" length="2.59" shape="1536.40,384.14 1536.41,384.85 1536.19,385.39 1535.75,385.76 1535.07,385.97"/>
    </edge>
    <edge id=":107_0" function="internal">
        <lane id=":107_0_0" index="0" disallow="tram rail_urban rail rail_electric rail_fast ship" speed="13.89" length="0.30" shape="948.66,199.83 948.37,199.89"/>
    </edge>
    <edge id=":108_0" function="internal">
        <lane id=":108_0_0" index="0" disallow="tram rail_urban rail rail_electric rail_fast ship" speed="13.89" length="10.68" shape="2321.54,222.48 2323.11,233.04"/>
    </edge>
    <edge id=":108_1" function="internal">
        <lane id=":108_1_0" index="0" disallow="tram rail_urban rail rail_electric rail_fast ship" speed="6.57" length="8.75" shape="2321.54,222.48 2321.53,224.82 2320.76,226.65 2319.25,227.97 2316.97,228.78"/>
    </edge>
    <edge id=":110_0" function="internal">
        <lane id=":110_0_0" index="0" disallow="tram rail_urban rail rail_electric rail_fast ship" speed="13.89" length="0.10" shape="1704.03,238.50 1704.03,238.50"/>
    </edge>
    <edge id=":112_0" function="internal">
        <lane id=":112_0_0" index="0" disallow="tram rail_urban rail rail_electric rail_fast ship" speed="13.89" length="0.29" shape="1407.68,304.58 1407.39,304.62"/>
    </edge>
    <edge id=":114_0" function="internal">
        <lane id=":114_0_0" index="0" disallow="tram rail_urban rail rail_electric rail_fast ship" speed="4.00" length="1.74" shape="2078.36,177.96 2078.16,178.37 2077.89,178.68 2077.53,178.90 2077.10,179.02"/>
    </edge>
    <edge id=":116_0" function="internal">
        <lane id=":116_0_0" index="0" disallow="tram rail_urban rail rail_electric rail_fast ship" speed="13.89" length="0.29" shape="444.08,626.20 444.03,625.92"/>
    </edge>
    <edge id=":117_0" function="internal">
        <lane id=":117_0_0" index="0" disallow="tram rail_urban rail rail_electric rail_fast ship" speed="6.60" length="8.71" shape="1477.26,636.54 1475.13,637.42 1473.73,638.81 1473.06,640.71 1473.13,643.13"/>
    </edge>
    <edge id=":117_1" function="internal">
        <lane id=":117_1_0" index="0" disallow="tram rail_urban rail rail_electric rail_fast ship" speed="27.78" length="10.53" shape="1477.26,636.54 1467.02,639.02"/>
    </edge>
    <edge id=":117_2" function="internal">
        <lane id=":117_2_0" index="0" disallow="tram rail_urban rail rail_electric rail_fast ship" speed="7.06" length="2.47" shape="1466.31,635.90 1468.78,635.88"/>
    </edge>
    <edge id=":117_3" function="internal">
        <lane id=":117_3_0" index="0" disallow="tram rail_urban rail rail_electric rail_fast ship" speed="3.65" length="1.44" shape="1466.31,635.90 1467.66,636.41"/>
    </edge>
    <edge id=":117_4" function="internal">
        <lane id=":117_4_0" index="0" disallow="tram rail_urban rail rail_electric rail_fast ship" speed="7.06" length="8.87" shape="1468.78,635.88 1470.74,637.08 1472.19,639.50 1473.13,643.13"/>
    </edge>
    <edge id=":117_5" function="internal">
        <lane id=":117_5_0" index="0" disallow="tram rail_urban rail rail_electric rail_fast ship" speed="3.65" length="3.23" shape="1467.66,636.41 1468.22,637.10 1468.01,637.97 1467.02,639.02"/>
    </edge>
    <edge id=":118_0" function="internal">
        <lane id=":118_0_0" index="0" disallow="tram rail_urban rail rail_electric rail_fast ship" speed="3.97" length="1.91" shape="2087.80,187.57 2087.78,187.07 2087.90,186.63 2088.15,186.26 2088.55,185.95"/>
    </edge>
    <edge id=":119_0" function="internal">
        <lane id=":119_0_0" index="0" disallow="tram rail_urban rail rail_electric rail_fast ship" speed="13.89" length="0.26" shape="1813.76,222.84 1813.50,222.88"/>
    </edge>
    <edge id=":120_0" function="internal">
        <lane id=":120_0_0" index="0" disallow="tram rail_urban rail rail_electric rail_fast ship" speed="13.89" length="1.00" shape="1985.32,715.12 1985.02,715.10 1984.82,715.06 1984.64,714.96 1984.40,714.79"/>
    </edge>
    <edge id=":122_0" function="internal">
        <lane id=":122_0_0" index="0" disallow="tram rail_urban rail rail_electric rail_fast ship" speed="3.91" length="2.52" shape="2211.73,313.54 2211.72,314.22 2211.50,314.75 2211.06,315.12 2210.41,315.33"/>
    </edge>
    <edge id=":124_0" function="internal">
        <lane id=":124_0_0" index="0" disallow="tram rail_urban rail rail_electric rail_fast ship" speed="27.78" length="0.30" shape="1389.74,676.37 1389.48,676.53"/>
    </edge>
    <edge id=":124_1" function="internal">
        <lane id=":124_1_0" index="0" disallow="tram rail_urban rail rail_electric rail_fast ship" speed="3.65" length="2.34" shape="1389.74,676.37 1388.30,676.35 1387.52,675.90"/>
    </edge>
    <edge id=":124_4" function="internal">
        <lane id=":124_4_0" index="0" disallow="tram rail_urban rail rail_electric rail_fast ship" speed="3.65" length="2.34" shape="1387.52,675.90 1387.42,675.01 1387.99,673.69"/>
    </edge>
    <edge id=":124_2" function="internal">
        <lane id=":124_2_0" index="0" disallow="tram rail_urban rail rail_electric rail_fast ship" speed="27.78" length="0.29" shape="1387.75,673.85 1387.99,673.69"/>
    </edge>
    <edge id=":124_3" function="internal">
        <lane id=":124_3_0" index="0" disallow="tram rail_urban rail rail_electric rail_fast ship" speed="3.65" length="2.34" shape="1387.75,673.85 1389.19,673.87 1389.96,674.32"/>
    </edge>
    <edge id=":124_5" function="internal">
        <lane id=":124_5_0" index="0" disallow="tram rail_urban rail rail_electric rail_fast ship" speed="3.65" length="2.34" shape="1389.96,674.32 1390.06,675.21 1389.48,676.53"/>
    </edge>
    <edge id=":127_0" function="internal">
        <lane id=":127_0_0" index="0" disallow="tram rail_urban rail rail_electric rail_fast ship" speed="3.90" length="2.58" shape="1533.40,355.44 1532.72,355.65 1532.27,356.03 1532.06,356.57 1532.07,357.28"/>
    </edge>
    <edge id=":130_0" function="internal">
        <lane id=":130_0_0" index="0" disallow="tram rail_urban rail rail_electric rail_fast ship" speed="13.89" length="0.47" shape="1836.38,1084.39 1836.30,1084.51 1836.24,1084.58 1836.17,1084.65 1836.07,1084.74"/>
    </edge>
    <edge id=":132_0" function="internal">
        <lane id=":132_0_0" index="0" disallow="tram rail_urban rail rail_electric rail_fast ship" speed="8.05" length="11.73" shape="1777.78,1114.01 1774.41,1115.75 1772.12,1117.72 1770.90,1119.91 1770.76,1122.31"/>
    </edge>
    <edge id=":132_1" function="internal">
        <lane id=":132_1_0" index="0" disallow="tram rail_urban rail rail_electric rail_fast ship" speed="15.28" length="13.37" shape="1777.78,1114.01 1774.56,1115.38 1771.61,1116.61 1768.62,1117.70 1765.26,1118.65"/>
    </edge>
    <edge id=":132_2" function="internal">
        <lane id=":132_2_0" index="0" disallow="tram rail_urban rail rail_electric rail_fast ship" speed="27.78" length="11.63" shape="1772.20,1110.89 1772.24,1114.38 1771.52,1116.88 1770.78,1119.24 1770.76,1122.31"/>
    </edge>
    <edge id=":132_3" function="internal">
        <lane id=":132_3_0" index="0" disallow="tram rail_urban rail rail_electric rail_fast ship" speed="6.74" length="9.14" shape="1769.04,1111.39 1769.16,1114.13 1768.57,1116.26 1767.27,1117.76 1765.26,1118.65"/>
    </edge>
    <edge id=":133_0" function="internal">
        <lane id=":133_0_0" index="0" disallow="tram rail_urban rail rail_electric rail_fast ship" speed="13.89" length="0.20" shape="1930.98,970.09 1930.92,970.10 1930.88,970.11 1930.85,970.12 1930.79,970.13"/>
    </edge>
    <edge id=":136_0" function="internal">
        <lane id=":136_0_0" index="0" disallow="tram rail_urban rail rail_electric rail_fast ship" speed="22.23" length="8.26" shape="1765.00,1086.42 1765.98,1088.71 1767.35,1090.01 1768.68,1091.31 1769.53,1093.63"/>
        <lane id=":136_0_1" index="1" disallow="tram rail_urban rail rail_electric rail_fast ship" speed="22.23" length="8.26" shape="1765.00,1086.42 1766.37,1094.10"/>
    </edge>
    <edge id=":137_0" function="internal">
        <lane id=":137_0_0" index="0" disallow="tram rail_urban rail rail_electric rail_fast ship" speed="13.89" length="0.30" shape="1722.56,1443.62 1722.85,1443.62"/>
    </edge>
    <edge id=":148_0" function="internal">
        <lane id=":148_0_0" index="0" disallow="tram rail_urban rail rail_electric rail_fast ship" speed="13.89" length="8.76" shape="1764.78,1442.30 1767.22,1441.73 1768.73,1440.59 1770.25,1439.49 1772.69,1439.02"/>
    </edge>
    <edge id=":152_0" function="internal">
        <lane id=":152_0_0" index="0" disallow="tram rail_urban rail rail_electric rail_fast ship" speed="13.89" length="0.10" shape="355.80,1058.56 355.80,1058.56"/>
    </edge>
    <edge id=":152_1" function="internal">
        <lane id=":152_1_0" index="0" disallow="tram rail_urban rail rail_electric rail_fast ship" speed="3.65" length="2.34" shape="355.80,1058.56 356.42,1057.26 357.15,1056.75"/>
    </edge>
    <edge id=":152_4" function="internal">
        <lane id=":152_4_0" index="0" disallow="tram rail_urban rail rail_electric rail_fast ship" speed="3.65" length="2.34" shape="357.15,1056.75 358.00,1057.03 358.96,1058.10"/>
    </edge>
    <edge id=":152_2" function="internal">
        <lane id=":152_2_0" index="0" disallow="tram rail_urban rail rail_electric rail_fast ship" speed="13.89" length="0.10" shape="358.96,1058.10 358.96,1058.10"/>
    </edge>
    <edge id=":152_3" function="internal">
        <lane id=":152_3_0" index="0" disallow="tram rail_urban rail rail_electric rail_fast ship" speed="3.65" length="2.34" shape="358.96,1058.10 358.34,1059.40 357.61,1059.91"/>
    </edge>
    <edge id=":152_5" function="internal">
        <lane id=":152_5_0" index="0" disallow="tram rail_urban rail rail_electric rail_fast ship" speed="3.65" length="2.34" shape="357.61,1059.91 356.76,1059.63 355.80,1058.56"/>
    </edge>
    <edge id=":155_0" function="internal">
        <lane id=":155_0_0" index="0" disallow="tram rail_urban rail rail_electric rail_fast ship" speed="15.28" length="0.30" shape="581.01,1198.51 580.72,1198.55"/>
    </edge>
    <edge id=":156_0" function="internal">
        <lane id=":156_0_0" index="0" disallow="tram rail_urban rail rail_electric rail_fast ship" speed="6.51" length="9.03" shape="794.98,1706.15 794.27,1703.78 792.98,1702.20 791.09,1701.42 788.62,1701.44"/>
    </edge>
    <edge id=":156_1" function="internal">
        <lane id=":156_1_0" index="0" disallow="tram rail_urban rail rail_electric rail_fast ship" speed="13.89" length="11.20" shape="794.98,1706.15 793.33,1695.07"/>
    </edge>
    <edge id=":157_0" function="internal">
        <lane id=":157_0_0" index="0" disallow="tram rail_urban rail rail_electric rail_fast ship" speed="6.52" length="9.00" shape="402.63,1326.00 400.26,1326.67 398.66,1327.94 397.84,1329.80 397.80,1332.26"/>
    </edge>
    <edge id=":157_1" function="internal">
        <lane id=":157_1_0" index="0" disallow="tram rail_urban rail rail_electric rail_fast ship" speed="7.29" length="11.68" shape="402.63,1326.00 398.78,1326.17 395.93,1325.50 394.08,1323.98 393.23,1321.62"/>
    </edge>
    <edge id=":157_2" function="internal">
        <lane id=":157_2_0" index="0" disallow="tram rail_urban rail rail_electric rail_fast ship" speed="13.89" length="11.13" shape="396.40,1321.22 397.80,1332.26"/>
    </edge>
    <edge id=":157_3" function="internal">
        <lane id=":157_3_0" index="0" disallow="tram rail_urban rail rail_electric rail_fast ship" speed="3.65" length="1.23" shape="396.40,1321.22 395.85,1322.32"/>
    </edge>
    <edge id=":157_4" function="internal">
        <lane id=":157_4_0" index="0" disallow="tram rail_urban rail rail_electric rail_fast ship" speed="3.65" length="3.44" shape="395.85,1322.32 395.76,1322.51 395.02,1323.01 394.17,1322.71 393.23,1321.62"/>
    </edge>
    <edge id=":158_0" function="internal">
        <lane id=":158_0_0" index="0" disallow="tram rail_urban rail rail_electric rail_fast ship" speed="13.89" length="0.10" shape="200.61,1458.02 200.61,1458.02"/>
    </edge>
    <edge id=":160_0" function="internal">
        <lane id=":160_0_0" index="0" disallow="tram rail_urban rail rail_electric rail_fast ship" speed="13.89" length="10.91" shape="849.24,1160.56 838.43,1162.09"/>
    </edge>
    <edge id=":160_1" function="internal">
        <lane id=":160_1_0" index="0" disallow="tram rail_urban rail rail_electric rail_fast ship" speed="3.65" length="4.67" shape="849.24,1160.56 847.94,1159.93 847.44,1159.19 847.73,1158.34 848.81,1157.39"/>
    </edge>
    <edge id=":160_2" function="internal">
        <lane id=":160_2_0" index="0" disallow="tram rail_urban rail rail_electric rail_fast ship" speed="6.51" length="8.86" shape="842.53,1152.73 843.25,1155.04 844.54,1156.59 846.39,1157.37 848.81,1157.39"/>
    </edge>
    <edge id=":160_3" function="internal">
        <lane id=":160_3_0" index="0" disallow="tram rail_urban rail rail_electric rail_fast ship" speed="7.25" length="11.51" shape="842.53,1152.73 842.79,1156.51 842.19,1159.33 840.74,1161.19 838.43,1162.09"/>
    </edge>
    <edge id=":161_0" function="internal">
        <lane id=":161_0_0" index="0" disallow="tram rail_urban rail rail_electric rail_fast ship" speed="13.89" length="0.31" shape="725.67,1237.55 725.63,1237.24"/>
    </edge>
    <edge id=":161_1" function="internal">
        <lane id=":161_1_0" index="0" disallow="tram rail_urban rail rail_electric rail_fast ship" speed="3.65" length="2.34" shape="725.67,1237.55 726.27,1236.24 727.00,1235.71"/>
    </edge>
    <edge id=":161_4" function="internal">
        <lane id=":161_4_0" index="0" disallow="tram rail_urban rail rail_electric rail_fast ship" speed="3.65" length="2.34" shape="727.00,1235.71 727.85,1235.98 728.83,1237.04"/>
    </edge>
    <edge id=":161_2" function="internal">
        <lane id=":161_2_0" index="0" disallow="tram rail_urban rail rail_electric rail_fast ship" speed="13.89" length="0.27" shape="728.79,1236.77 728.83,1237.04"/>
    </edge>
    <edge id=":161_3" function="internal">
        <lane id=":161_3_0" index="0" disallow="tram rail_urban rail rail_electric rail_fast ship" speed="3.65" length="2.34" shape="728.79,1236.77 728.18,1238.08 727.44,1238.59"/>
    </edge>
    <edge id=":161_5" function="internal">
        <lane id=":161_5_0" index="0" disallow="tram rail_urban rail rail_electric rail_fast ship" speed="3.65" length="2.34" shape="727.44,1238.59 726.59,1238.31 725.63,1237.24"/>
    </edge>
    <edge id=":162_0" function="internal">
        <lane id=":162_0_0" index="0" disallow="tram rail_urban rail rail_electric rail_fast ship" speed="22.22" length="11.04" shape="677.12,1723.00 675.56,1712.07"/>
    </edge>
    <edge id=":162_1" function="internal">
        <lane id=":162_1_0" index="0" disallow="tram rail_urban rail rail_electric rail_fast ship" speed="6.52" length="8.94" shape="681.85,1716.80 679.40,1716.77 677.54,1715.97 676.26,1714.40 675.56,1712.07"/>
    </edge>
    <edge id=":163_0" function="internal">
        <lane id=":163_0_0" index="0" disallow="tram rail_urban rail rail_electric rail_fast ship" speed="6.51" length="9.00" shape="580.55,1307.40 579.86,1305.04 578.58,1303.46 576.70,1302.67 574.23,1302.65"/>
    </edge>
    <edge id=":163_1" function="internal">
        <lane id=":163_1_0" index="0" disallow="tram rail_urban rail rail_electric rail_fast ship" speed="13.89" length="11.14" shape="580.55,1307.40 578.97,1296.37"/>
    </edge>
    <edge id=":165_0" function="internal">
        <lane id=":165_0_0" index="0" disallow="tram rail_urban rail rail_electric rail_fast ship" speed="13.89" length="0.31" shape="877.64,1156.74 877.33,1156.79"/>
    </edge>
    <edge id=":165_1" function="internal">
        <lane id=":165_1_0" index="0" disallow="tram rail_urban rail rail_electric rail_fast ship" speed="3.65" length="2.34" shape="877.64,1156.74 876.33,1156.12 875.82,1155.39"/>
    </edge>
    <edge id=":165_4" function="internal">
        <lane id=":165_4_0" index="0" disallow="tram rail_urban rail rail_electric rail_fast ship" speed="3.65" length="2.34" shape="875.82,1155.39 876.10,1154.54 877.18,1153.58"/>
    </edge>
    <edge id=":165_2" function="internal">
        <lane id=":165_2_0" index="0" disallow="tram rail_urban rail rail_electric rail_fast ship" speed="13.89" length="0.28" shape="876.90,1153.61 877.18,1153.58"/>
    </edge>
    <edge id=":165_3" function="internal">
        <lane id=":165_3_0" index="0" disallow="tram rail_urban rail rail_electric rail_fast ship" speed="3.65" length="2.34" shape="876.90,1153.61 878.20,1154.25 878.70,1154.99"/>
    </edge>
    <edge id=":165_5" function="internal">
        <lane id=":165_5_0" index="0" disallow="tram rail_urban rail rail_electric rail_fast ship" speed="3.65" length="2.34" shape="878.70,1154.99 878.41,1155.83 877.33,1156.79"/>
    </edge>
    <edge id=":166_0" function="internal">
        <lane id=":166_0_0" index="0" disallow="tram rail_urban rail rail_electric rail_fast ship" speed="13.89" length="0.19" shape="639.29,1018.30 639.28,1018.11"/>
    </edge>
    <edge id=":166_1" function="internal">
        <lane id=":166_1_0" index="0" disallow="tram rail_urban rail rail_electric rail_fast ship" speed="3.65" length="2.34" shape="639.29,1018.30 640.00,1017.04 640.76,1016.58"/>
    </edge>
    <edge id=":166_4" function="internal">
        <lane id=":166_4_0" index="0" disallow="tram rail_urban rail rail_electric rail_fast ship" speed="3.65" length="2.34" shape="640.76,1016.58 641.59,1016.91 642.48,1018.04"/>
    </edge>
    <edge id=":166_2" function="internal">
        <lane id=":166_2_0" index="0" disallow="tram rail_urban rail rail_electric rail_fast ship" speed="13.89" length="0.30" shape="642.46,1017.75 642.48,1018.04"/>
    </edge>
    <edge id=":166_3" function="internal">
        <lane id=":166_3_0" index="0" disallow="tram rail_urban rail rail_electric rail_fast ship" speed="3.65" length="2.34" shape="642.46,1017.75 641.80,1019.03 641.05,1019.52"/>
    </edge>
    <edge id=":166_5" function="internal">
        <lane id=":166_5_0" index="0" disallow="tram rail_urban rail rail_electric rail_fast ship" speed="3.65" length="2.34" shape="641.05,1019.52 640.21,1019.21 639.28,1018.11"/>
    </edge>
    <edge id=":168_0" function="internal">
        <lane id=":168_0_0" index="0" disallow="tram rail_urban rail rail_electric rail_fast ship" speed="6.52" length="8.96" shape="1117.91,1828.92 1117.21,1826.58 1115.92,1825.02 1114.05,1824.22 1111.58,1824.20"/>
    </edge>
    <edge id=":168_1" function="internal">
        <lane id=":168_1_0" index="0" disallow="tram rail_urban rail rail_electric rail_fast ship" speed="13.89" length="11.06" shape="1117.91,1828.92 1116.28,1817.98"/>
        <lane id=":168_1_1" index="1" disallow="tram rail_urban rail rail_electric rail_fast ship" speed="13.89" length="11.06" shape="1121.07,1828.45 1119.44,1817.51"/>
    </edge>
    <edge id=":169_0" function="internal">
        <lane id=":169_0_0" index="0" disallow="tram rail_urban rail rail_electric rail_fast ship" speed="3.95" length="2.04" shape="699.74,1871.33 699.22,1871.17 698.83,1870.88 698.57,1870.48 698.43,1869.96"/>
    </edge>
    <edge id=":171_0" function="internal">
        <lane id=":171_0_0" index="0" disallow="tram rail_urban rail rail_electric rail_fast ship" speed="13.89" length="0.10" shape="542.63,1031.73 542.63,1031.66"/>
    </edge>
    <edge id=":172_0" function="internal">
        <lane id=":172_0_0" index="0" disallow="tram rail_urban rail rail_electric rail_fast ship" speed="22.22" length="0.26" shape="683.70,1770.13 683.66,1769.87"/>
    </edge>
    <edge id=":174_0" function="internal">
        <lane id=":174_0_0" index="0" disallow="tram rail_urban rail rail_electric rail_fast ship" speed="13.89" length="0.11" shape="967.81,1803.04 967.73,1802.96"/>
    </edge>
    <edge id=":175_0" function="internal">
        <lane id=":175_0_0" index="0" disallow="tram rail_urban rail rail_electric rail_fast ship" speed="13.89" length="9.30" shape="597.74,1400.86 588.57,1402.40"/>
    </edge>
    <edge id=":175_1" function="internal">
        <lane id=":175_1_0" index="0" disallow="tram rail_urban rail rail_electric rail_fast ship" speed="5.97" length="7.57" shape="597.74,1400.86 596.08,1400.79 594.78,1399.94 593.83,1398.32 593.24,1395.92"/>
    </edge>
    <edge id=":176_0" function="internal">
        <lane id=":176_0_0" index="0" disallow="tram rail_urban rail rail_electric rail_fast ship" speed="27.78" length="0.26" shape="838.36,1908.76 838.10,1908.70"/>
    </edge>
    <edge id=":177_0" function="internal">
        <lane id=":177_0_0" index="0" disallow="tram rail_urban rail rail_electric rail_fast ship" speed="13.89" length="14.27" shape="670.95,1186.34 656.82,1188.32"/>
    </edge>
    <edge id=":177_1" function="internal">
        <lane id=":177_1_0" index="0" disallow="tram rail_urban rail rail_electric rail_fast ship" speed="8.00" length="14.10" shape="670.95,1186.34 667.09,1186.29 664.17,1185.02 662.17,1182.53 661.10,1178.82"/>
    </edge>
    <edge id=":177_2" function="internal">
        <lane id=":177_2_0" index="0" disallow="tram rail_urban rail rail_electric rail_fast ship" speed="3.65" length="4.67" shape="670.95,1186.34 669.66,1185.70 669.16,1184.96 669.45,1184.11 670.54,1183.16"/>
    </edge>
    <edge id=":177_3" function="internal">
        <lane id=":177_3_0" index="0" disallow="tram rail_urban rail rail_electric rail_fast ship" speed="6.51" length="8.97" shape="664.27,1178.38 664.95,1180.74 666.22,1182.33 668.08,1183.13 670.54,1183.16"/>
    </edge>
    <edge id=":177_4" function="internal">
        <lane id=":177_4_0" index="0" disallow="tram rail_urban rail rail_electric rail_fast ship" speed="8.01" length="14.13" shape="664.27,1178.38 664.26,1182.24 663.01,1185.18 660.53,1187.21 656.82,1188.32"/>
    </edge>
    <edge id=":177_5" function="internal">
        <lane id=":177_5_0" index="0" disallow="tram rail_urban rail rail_electric rail_fast ship" speed="3.65" length="4.67" shape="664.27,1178.38 663.64,1179.68 662.91,1180.19 662.06,1179.90 661.10,1178.82"/>
    </edge>
    <edge id=":178_0" function="internal">