<?xml version="1.0" encoding="UTF-8"?>

<!-- generated on 2022-10-09 18:03:47 by Eclipse SUMO netconvert Version 1.12.0
<configuration xmlns:xsi="http://www.w3.org/2001/XMLSchema-instance" xsi:noNamespaceSchemaLocation="http://sumo.dlr.de/xsd/netconvertConfiguration.xsd">

    <input>
        <sumo-net-file value="/home/svadlmat/UTC/utc/data/maps/sumo/Sydney.net.xml"/>
    </input>

    <output>
        <output-file value="/home/svadlmat/UTC/utc/data/scenarios/test/maps/networks/test_similarity_minimal_similarity_sg.net.xml"/>
    </output>

    <processing>
        <geometry.min-radius.fix.railways value="false"/>
        <geometry.max-grade.fix value="false"/>
        <offset.disable-normalization value="true"/>
        <lefthand value="false"/>
    </processing>

    <edge_removal>
        <keep-edges.explicit value="682,639,793,331,867,425,53,174,484,97,144,127,750,791,1021,365,1009,708,391,1002,969,552,110,342,443,17,102,340,829,502,148,525,29,837,739,869,469,13,952,1005,116,638,18,886,506,792,253,830,655,878,367,111,747,615,551,417,953,510,746,294,1007,963,126,954,810,165,595,923,34,795,494,197,305,166,706,8,891,968,889,563,370,546,958,686,52,909,228,74,833,380,898,764,471,115,237,283,583,404,410,796,164,637,874,897,827,131,862,503,1022,769,145,378,512,962,364,159,658,627,812,526,861,175,284,507,588,233,478,146,917,444,379,752,957,587,673,295,335,376,994,16,54,884,21,896,1003,749,509,940,339,550,287,361,908,501,890,906,674,245,924,964,549,527,147,130,893,511,428,86,477,1004,547,996,372,405,894,366,1010,805,915,211,765,842,157,62,941,524,1031,866,554,960,1019,553,738,885,766,825,916,400,411,75,1020,14,485,38,591,288,424,520,983,377,47,374,83,513,423,373,695,1029,129,101,630,433,82,317,748,508,826,124,942,427,371,403,611,55,523,907,585,252,875,657,538,416,967,1030,20,56,903,745,212,751,541,892,774,483,539,84,594,767,505,22,387,631,161,616,394,755,213,472,251,46,285,943,640,1018,770,332,931,426,15,656,1006,548,336,536,628,932,19,1032,315,887,754,263,740,828,382,90,910,123,859,399,229,286,629,481,951,659,415"/>
    </edge_removal>

    <junctions>
        <no-turnarounds value="true"/>
        <junctions.corner-detail value="5"/>
        <junctions.limit-turn-speed value="5.5"/>
        <rectangular-lane-cut value="false"/>
    </junctions>

    <pedestrian>
        <walkingareas value="false"/>
    </pedestrian>

    <report>
        <aggregate-warnings value="5"/>
    </report>

</configuration>
-->

<net version="1.9" junctionCornerDetail="5" limitTurnSpeed="5.50" xmlns:xsi="http://www.w3.org/2001/XMLSchema-instance" xsi:noNamespaceSchemaLocation="http://sumo.dlr.de/xsd/net_file.xsd">

    <location netOffset="-336586.08,3754670.31" convBoundary="75.04,12.34,2481.37,2196.77" origBoundary="151.232525,-33.920080,151.266296,-33.899237" projParameter="+proj=utm +zone=56 +ellps=WGS84 +datum=WGS84 +units=m +no_defs"/>

    <type id="highway.bridleway" priority="1" numLanes="1" speed="2.78" allow="pedestrian" oneway="1" width="2.00"/>
    <type id="highway.bus_guideway" priority="1" numLanes="1" speed="27.78" allow="bus" oneway="1"/>
    <type id="highway.cycleway" priority="1" numLanes="1" speed="8.33" allow="bicycle" oneway="0" width="1.00"/>
    <type id="highway.footway" priority="1" numLanes="1" speed="2.78" allow="pedestrian" oneway="1" width="2.00"/>
    <type id="highway.ford" priority="1" numLanes="1" speed="2.78" allow="army" oneway="0"/>
    <type id="highway.living_street" priority="2" numLanes="1" speed="2.78" disallow="tram rail_urban rail rail_electric rail_fast ship" oneway="0"/>
    <type id="highway.motorway" priority="14" numLanes="2" speed="39.44" allow="private emergency authority army vip passenger hov taxi bus coach delivery truck trailer motorcycle evehicle custom1 custom2" oneway="1"/>
    <type id="highway.motorway_link" priority="9" numLanes="1" speed="22.22" allow="private emergency authority army vip passenger hov taxi bus coach delivery truck trailer motorcycle evehicle custom1 custom2" oneway="1"/>
    <type id="highway.path" priority="1" numLanes="1" speed="2.78" allow="pedestrian bicycle" oneway="0" width="2.00"/>
    <type id="highway.pedestrian" priority="1" numLanes="1" speed="2.78" allow="pedestrian" oneway="1" width="2.00"/>
    <type id="highway.primary" priority="12" numLanes="2" speed="27.78" disallow="tram rail_urban rail rail_electric rail_fast ship" oneway="0"/>
    <type id="highway.primary_link" priority="7" numLanes="1" speed="22.22" disallow="tram rail_urban rail rail_electric rail_fast ship" oneway="0"/>
    <type id="highway.raceway" priority="15" numLanes="2" speed="83.33" allow="vip" oneway="0"/>
    <type id="highway.residential" priority="3" numLanes="1" speed="13.89" disallow="tram rail_urban rail rail_electric rail_fast ship" oneway="0"/>
    <type id="highway.secondary" priority="11" numLanes="1" speed="27.78" disallow="tram rail_urban rail rail_electric rail_fast ship" oneway="0"/>
    <type id="highway.secondary_link" priority="6" numLanes="1" speed="22.22" disallow="tram rail_urban rail rail_electric rail_fast ship" oneway="0"/>
    <type id="highway.service" priority="1" numLanes="1" speed="5.56" allow="pedestrian delivery bicycle" oneway="0"/>
    <type id="highway.stairs" priority="1" numLanes="1" speed="1.39" allow="pedestrian" oneway="1" width="2.00"/>
    <type id="highway.step" priority="1" numLanes="1" speed="1.39" allow="pedestrian" oneway="1" width="2.00"/>
    <type id="highway.steps" priority="1" numLanes="1" speed="1.39" allow="pedestrian" oneway="1" width="2.00"/>
    <type id="highway.tertiary" priority="10" numLanes="1" speed="22.22" disallow="tram rail_urban rail rail_electric rail_fast ship" oneway="0"/>
    <type id="highway.tertiary_link" priority="5" numLanes="1" speed="22.22" disallow="tram rail_urban rail rail_electric rail_fast ship" oneway="0"/>
    <type id="highway.track" priority="1" numLanes="1" speed="5.56" allow="pedestrian motorcycle moped bicycle" oneway="0"/>
    <type id="highway.trunk" priority="13" numLanes="2" speed="27.78" disallow="pedestrian bicycle tram rail_urban rail rail_electric rail_fast ship" oneway="0"/>
    <type id="highway.trunk_link" priority="8" numLanes="1" speed="22.22" disallow="pedestrian bicycle tram rail_urban rail rail_electric rail_fast ship" oneway="0"/>
    <type id="highway.unclassified" priority="4" numLanes="1" speed="13.89" disallow="tram rail_urban rail rail_electric rail_fast ship" oneway="0"/>
    <type id="highway.unsurfaced" priority="1" numLanes="1" speed="8.33" disallow="tram rail_urban rail rail_electric rail_fast ship" oneway="0"/>
    <type id="railway.highspeed" priority="21" numLanes="1" speed="69.44" allow="rail_fast" oneway="1"/>
    <type id="railway.light_rail" priority="19" numLanes="1" speed="27.78" allow="rail_urban" oneway="1"/>
    <type id="railway.preserved" priority="16" numLanes="1" speed="27.78" allow="rail" oneway="1"/>
    <type id="railway.rail" priority="20" numLanes="1" speed="44.44" allow="rail" oneway="1"/>
    <type id="railway.subway" priority="18" numLanes="1" speed="27.78" allow="rail_urban" oneway="1"/>
    <type id="railway.tram" priority="17" numLanes="1" speed="13.89" allow="tram" oneway="1"/>

    <edge id=":101_0" function="internal">
        <lane id=":101_0_0" index="0" disallow="tram rail_urban rail rail_electric rail_fast ship" speed="22.22" length="0.30" shape="1704.65,593.35 1704.35,593.39"/>
    </edge>
    <edge id=":103_0" function="internal">
        <lane id=":103_0_0" index="0" disallow="tram rail_urban rail rail_electric rail_fast ship" speed="6.54" length="8.92" shape="2208.26,246.85 2205.95,247.58 2204.41,248.88 2203.64,250.76 2203.62,253.21"/>
    </edge>
    <edge id=":103_1" function="internal">
        <lane id=":103_1_0" index="0" disallow="tram rail_urban rail rail_electric rail_fast ship" speed="13.89" length="10.98" shape="2208.26,246.85 2197.42,248.62"/>
    </edge>
    <edge id=":104_0" function="internal">
        <lane id=":104_0_0" index="0" disallow="tram rail_urban rail rail_electric rail_fast ship" speed="3.90" length="2.59" shape="1536.40,384.14 1536.41,384.85 1536.19,385.39 1535.75,385.76 1535.07,385.97"/>
    </edge>
    <edge id=":107_0" function="internal">
        <lane id=":107_0_0" index="0" disallow="tram rail_urban rail rail_electric rail_fast ship" speed="13.89" length="0.30" shape="948.66,199.83 948.37,199.89"/>
    </edge>
    <edge id=":108_0" function="internal">
        <lane id=":108_0_0" index="0" disallow="tram rail_urban rail rail_electric rail_fast ship" speed="13.89" length="10.68" shape="2321.54,222.48 2323.11,233.04"/>
    </edge>
    <edge id=":108_1" function="internal">
        <lane id=":108_1_0" index="0" disallow="tram rail_urban rail rail_electric rail_fast ship" speed="6.57" length="8.75" shape="2321.54,222.48 2321.53,224.82 2320.76,226.65 2319.25,227.97 2316.97,228.78"/>
    </edge>
    <edge id=":110_0" function="internal">
        <lane id=":110_0_0" index="0" disallow="tram rail_urban rail rail_electric rail_fast ship" speed="13.89" length="0.10" shape="1704.03,238.50 1704.03,238.50"/>
    </edge>
    <edge id=":112_0" function="internal">
        <lane id=":112_0_0" index="0" disallow="tram rail_urban rail rail_electric rail_fast ship" speed="13.89" length="0.29" shape="1407.68,304.58 1407.39,304.62"/>
    </edge>
    <edge id=":114_0" function="internal">
        <lane id=":114_0_0" index="0" disallow="tram rail_urban rail rail_electric rail_fast ship" speed="4.00" length="1.74" shape="2078.36,177.96 2078.16,178.37 2077.89,178.68 2077.53,178.90 2077.10,179.02"/>
    </edge>
    <edge id=":116_0" function="internal">
        <lane id=":116_0_0" index="0" disallow="tram rail_urban rail rail_electric rail_fast ship" speed="13.89" length="0.29" shape="444.08,626.20 444.03,625.92"/>
    </edge>
    <edge id=":117_0" function="internal">
        <lane id=":117_0_0" index="0" disallow="tram rail_urban rail rail_electric rail_fast ship" speed="6.60" length="8.71" shape="1477.26,636.54 1475.13,637.42 1473.73,638.81 1473.06,640.71 1473.13,643.13"/>
    </edge>
    <edge id=":117_1" function="internal">
        <lane id=":117_1_0" index="0" disallow="tram rail_urban rail rail_electric rail_fast ship" speed="27.78" length="10.53" shape="1477.26,636.54 1467.02,639.02"/>
    </edge>
    <edge id=":117_2" function="internal">
        <lane id=":117_2_0" index="0" disallow="tram rail_urban rail rail_electric rail_fast ship" speed="7.06" length="2.47" shape="1466.31,635.90 1468.78,635.88"/>
    </edge>
    <edge id=":117_3" function="internal">
        <lane id=":117_3_0" index="0" disallow="tram rail_urban rail rail_electric rail_fast ship" speed="3.65" length="1.44" shape="1466.31,635.90 1467.66,636.41"/>
    </edge>
    <edge id=":117_4" function="internal">
        <lane id=":117_4_0" index="0" disallow="tram rail_urban rail rail_electric rail_fast ship" speed="7.06" length="8.87" shape="1468.78,635.88 1470.74,637.08 1472.19,639.50 1473.13,643.13"/>
    </edge>
    <edge id=":117_5" function="internal">
        <lane id=":117_5_0" index="0" disallow="tram rail_urban rail rail_electric rail_fast ship" speed="3.65" length="3.23" shape="1467.66,636.41 1468.22,637.10 1468.01,637.97 1467.02,639.02"/>
    </edge>
    <edge id=":118_0" function="internal">
        <lane id=":118_0_0" index="0" disallow="tram rail_urban rail rail_electric rail_fast ship" speed="3.97" length="1.91" shape="2087.80,187.57 2087.78,187.07 2087.90,186.63 2088.15,186.26 2088.55,185.95"/>
    </edge>
    <edge id=":119_0" function="internal">
        <lane id=":119_0_0" index="0" disallow="tram rail_urban rail rail_electric rail_fast ship" speed="13.89" length="0.26" shape="1813.76,222.84 1813.50,222.88"/>
    </edge>
    <edge id=":120_0" function="internal">
        <lane id=":120_0_0" index="0" disallow="tram rail_urban rail rail_electric rail_fast ship" speed="13.89" length="1.00" shape="1985.32,715.12 1985.02,715.10 1984.82,715.06 1984.64,714.96 1984.40,714.79"/>
    </edge>
    <edge id=":122_0" function="internal">
        <lane id=":122_0_0" index="0" disallow="tram rail_urban rail rail_electric rail_fast ship" speed="3.91" length="2.52" shape="2211.73,313.54 2211.72,314.22 2211.50,314.75 2211.06,315.12 2210.41,315.33"/>
    </edge>
    <edge id=":124_0" function="internal">
        <lane id=":124_0_0" index="0" disallow="tram rail_urban rail rail_electric rail_fast ship" speed="27.78" length="0.30" shape="1389.74,676.37 1389.48,676.53"/>
    </edge>
    <edge id=":124_1" function="internal">
        <lane id=":124_1_0" index="0" disallow="tram rail_urban rail rail_electric rail_fast ship" speed="3.65" length="2.34" shape="1389.74,676.37 1388.30,676.35 1387.52,675.90"/>
    </edge>
    <edge id=":124_4" function="internal">
        <lane id=":124_4_0" index="0" disallow="tram rail_urban rail rail_electric rail_fast ship" speed="3.65" length="2.34" shape="1387.52,675.90 1387.42,675.01 1387.99,673.69"/>
    </edge>
    <edge id=":124_2" function="internal">
        <lane id=":124_2_0" index="0" disallow="tram rail_urban rail rail_electric rail_fast ship" speed="27.78" length="0.29" shape="1387.75,673.85 1387.99,673.69"/>
    </edge>
    <edge id=":124_3" function="internal">
        <lane id=":124_3_0" index="0" disallow="tram rail_urban rail rail_electric rail_fast ship" speed="3.65" length="2.34" shape="1387.75,673.85 1389.19,673.87 1389.96,674.32"/>
    </edge>
    <edge id=":124_5" function="internal">
        <lane id=":124_5_0" index="0" disallow="tram rail_urban rail rail_electric rail_fast ship" speed="3.65" length="2.34" shape="1389.96,674.32 1390.06,675.21 1389.48,676.53"/>
    </edge>
    <edge id=":127_0" function="internal">
        <lane id=":127_0_0" index="0" disallow="tram rail_urban rail rail_electric rail_fast ship" speed="3.90" length="2.58" shape="1533.40,355.44 1532.72,355.65 1532.27,356.03 1532.06,356.57 1532.07,357.28"/>
    </edge>
    <edge id=":129_0" function="internal">
        <lane id=":129_0_0" index="0" disallow="tram rail_urban rail rail_electric rail_fast ship" speed="22.22" length="0.10" shape="1918.41,1529.81 1918.47,1529.86"/>
    </edge>
    <edge id=":130_0" function="internal">
        <lane id=":130_0_0" index="0" disallow="tram rail_urban rail rail_electric rail_fast ship" speed="13.89" length="0.47" shape="1836.38,1084.39 1836.30,1084.51 1836.24,1084.58 1836.17,1084.65 1836.07,1084.74"/>
    </edge>
    <edge id=":132_0" function="internal">
        <lane id=":132_0_0" index="0" disallow="tram rail_urban rail rail_electric rail_fast ship" speed="8.05" length="11.73" shape="1777.78,1114.01 1774.41,1115.75 1772.12,1117.72 1770.90,1119.91 1770.76,1122.31"/>
    </edge>
    <edge id=":132_1" function="internal">
        <lane id=":132_1_0" index="0" disallow="tram rail_urban rail rail_electric rail_fast ship" speed="15.28" length="13.37" shape="1777.78,1114.01 1774.56,1115.38 1771.61,1116.61 1768.62,1117.70 1765.26,1118.65"/>
    </edge>
    <edge id=":132_2" function="internal">
        <lane id=":132_2_0" index="0" disallow="tram rail_urban rail rail_electric rail_fast ship" speed="27.78" length="11.63" shape="1772.20,1110.89 1772.24,1114.38 1771.52,1116.88 1770.78,1119.24 1770.76,1122.31"/>
    </edge>
    <edge id=":132_3" function="internal">
        <lane id=":132_3_0" index="0" disallow="tram rail_urban rail rail_electric rail_fast ship" speed="6.74" length="9.14" shape="1769.04,1111.39 1769.16,1114.13 1768.57,1116.26 1767.27,1117.76 1765.26,1118.65"/>
    </edge>
    <edge id=":133_0" function="internal">
        <lane id=":133_0_0" index="0" disallow="tram rail_urban rail rail_electric rail_fast ship" speed="13.89" length="0.20" shape="1930.98,970.09 1930.92,970.10 1930.88,970.11 1930.85,970.12 1930.79,970.13"/>
    </edge>
    <edge id=":135_0" function="internal">
        <lane id=":135_0_0" index="0" disallow="tram rail_urban rail rail_electric rail_fast ship" speed="3.90" length="2.58" shape="1838.22,1200.37 1838.93,1200.36 1839.47,1200.57 1839.85,1201.02 1840.06,1201.69"/>
    </edge>
    <edge id=":136_0" function="internal">
        <lane id=":136_0_0" index="0" disallow="tram rail_urban rail rail_electric rail_fast ship" speed="22.23" length="8.26" shape="1765.00,1086.42 1765.98,1088.71 1767.35,1090.01 1768.68,1091.31 1769.53,1093.63"/>
        <lane id=":136_0_1" index="1" disallow="tram rail_urban rail rail_electric rail_fast ship" speed="22.23" length="8.26" shape="1765.00,1086.42 1766.37,1094.10"/>
    </edge>
    <edge id=":137_0" function="internal">
        <lane id=":137_0_0" index="0" disallow="tram rail_urban rail rail_electric rail_fast ship" speed="13.89" length="0.30" shape="1722.56,1443.62 1722.85,1443.62"/>
    </edge>
    <edge id=":139_0" function="internal">
        <lane id=":139_0_0" index="0" disallow="tram rail_urban rail rail_electric rail_fast ship" speed="22.22" length="0.18" shape="1980.25,1672.46 1980.28,1672.64"/>
    </edge>
    <edge id=":140_0" function="internal">
        <lane id=":140_0_0" index="0" disallow="tram rail_urban rail rail_electric rail_fast ship" speed="13.89" length="0.10" shape="1525.29,1636.53 1525.29,1636.53"/>
    </edge>
    <edge id=":145_0" function="internal">
        <lane id=":145_0_0" index="0" disallow="tram rail_urban rail rail_electric rail_fast ship" speed="3.90" length="2.59" shape="1867.53,1368.59 1867.54,1369.30 1867.33,1369.84 1866.88,1370.22 1866.20,1370.43"/>
    </edge>
    <edge id=":148_0" function="internal">
        <lane id=":148_0_0" index="0" disallow="tram rail_urban rail rail_electric rail_fast ship" speed="13.89" length="8.76" shape="1764.78,1442.30 1767.22,1441.73 1768.73,1440.59 1770.25,1439.49 1772.69,1439.02"/>
    </edge>
    <edge id=":151_0" function="internal">
        <lane id=":151_0_0" index="0" disallow="tram rail_urban rail rail_electric rail_fast ship" speed="3.90" length="2.58" shape="284.48,1242.70 283.80,1242.90 283.34,1243.27 283.12,1243.81 283.12,1244.51"/>
    </edge>
    <edge id=":152_0" function="internal">
        <lane id=":152_0_0" index="0" disallow="tram rail_urban rail rail_electric rail_fast ship" speed="13.89" length="11.20" shape="356.83,1065.69 355.22,1054.61"/>
    </edge>
    <edge id=":152_1" function="internal">
        <lane id=":152_1_0" index="0" disallow="tram rail_urban rail rail_electric rail_fast ship" speed="3.65" length="1.44" shape="356.83,1065.69 357.45,1064.39"/>
    </edge>
    <edge id=":152_6" function="internal">
        <lane id=":152_6_0" index="0" disallow="tram rail_urban rail rail_electric rail_fast ship" speed="3.65" length="3.23" shape="357.45,1064.39 358.18,1063.88 359.03,1064.16 360.00,1065.23"/>
    </edge>
    <edge id=":152_2" function="internal">
        <lane id=":152_2_0" index="0" disallow="tram rail_urban rail rail_electric rail_fast ship" speed="6.50" length="9.03" shape="364.74,1058.89 362.36,1059.59 360.78,1060.87 359.99,1062.76 360.00,1065.23"/>
    </edge>
    <edge id=":152_3" function="internal">
        <lane id=":152_3_0" index="0" disallow="tram rail_urban rail rail_electric rail_fast ship" speed="7.33" length="11.73" shape="364.74,1058.89 360.88,1059.09 358.00,1058.45 356.12,1056.95 355.22,1054.61"/>
    </edge>
    <edge id=":152_4" function="internal">
        <lane id=":152_4_0" index="0" disallow="tram rail_urban rail rail_electric rail_fast ship" speed="13.89" length="11.20" shape="358.39,1054.15 360.00,1065.23"/>
    </edge>
    <edge id=":152_5" function="internal">
        <lane id=":152_5_0" index="0" disallow="tram rail_urban rail rail_electric rail_fast ship" speed="3.65" length="1.44" shape="358.39,1054.15 357.77,1055.45"/>
    </edge>
    <edge id=":152_7" function="internal">
        <lane id=":152_7_0" index="0" disallow="tram rail_urban rail rail_electric rail_fast ship" speed="3.65" length="3.23" shape="357.77,1055.45 357.04,1055.96 356.19,1055.68 355.22,1054.61"/>
    </edge>
    <edge id=":155_0" function="internal">
        <lane id=":155_0_0" index="0" disallow="tram rail_urban rail rail_electric rail_fast ship" speed="15.28" length="0.30" shape="581.01,1198.51 580.72,1198.55"/>
    </edge>
    <edge id=":156_0" function="internal">
        <lane id=":156_0_0" index="0" disallow="tram rail_urban rail rail_electric rail_fast ship" speed="3.90" length="2.58" shape="794.39,1702.19 794.19,1701.51 793.82,1701.06 793.28,1700.84 792.57,1700.85"/>
    </edge>
    <edge id=":157_0" function="internal">
        <lane id=":157_0_0" index="0" disallow="tram rail_urban rail rail_electric rail_fast ship" speed="13.89" length="11.20" shape="394.64,1332.72 393.23,1321.61"/>
    </edge>
    <edge id=":157_1" function="internal">
        <lane id=":157_1_0" index="0" disallow="tram rail_urban rail rail_electric rail_fast ship" speed="6.49" length="4.12" shape="399.50,1326.43 397.02,1326.41 395.51,1325.76"/>
    </edge>
    <edge id=":157_2" function="internal">
        <lane id=":157_2_0" index="0" disallow="tram rail_urban rail rail_electric rail_fast ship" speed="6.49" length="4.91" shape="395.51,1325.76 395.15,1325.60 393.89,1324.00 393.23,1321.61"/>
    </edge>
    <edge id=":158_0" function="internal">
        <lane id=":158_0_0" index="0" disallow="tram rail_urban rail rail_electric rail_fast ship" speed="13.89" length="0.10" shape="200.61,1458.02 200.61,1458.02"/>
    </edge>
    <edge id=":160_0" function="internal">
        <lane id=":160_0_0" index="0" disallow="tram rail_urban rail rail_electric rail_fast ship" speed="13.89" length="14.08" shape="849.24,1160.56 835.30,1162.58"/>
    </edge>
    <edge id=":160_1" function="internal">
        <lane id=":160_1_0" index="0" disallow="tram rail_urban rail rail_electric rail_fast ship" speed="8.01" length="13.93" shape="849.24,1160.56 845.43,1160.53 842.52,1159.30 840.50,1156.87 839.37,1153.24"/>
    </edge>
    <edge id=":160_2" function="internal">
        <lane id=":160_2_0" index="0" disallow="tram rail_urban rail rail_electric rail_fast ship" speed="3.65" length="4.67" shape="849.24,1160.56 847.94,1159.93 847.44,1159.19 847.73,1158.34 848.81,1157.39"/>
    </edge>
    <edge id=":160_3" function="internal">
        <lane id=":160_3_0" index="0" disallow="tram rail_urban rail rail_electric rail_fast ship" speed="6.51" length="8.86" shape="842.53,1152.73 843.25,1155.04 844.54,1156.59 846.39,1157.37 848.81,1157.39"/>
    </edge>
    <edge id=":160_4" function="internal">
        <lane id=":160_4_0" index="0" disallow="tram rail_urban rail rail_electric rail_fast ship" speed="7.92" length="13.95" shape="842.53,1152.73 842.60,1156.54 841.41,1159.45 838.98,1161.46 835.30,1162.58"/>
    </edge>
    <edge id=":160_5" function="internal">
        <lane id=":160_5_0" index="0" disallow="tram rail_urban rail rail_electric rail_fast ship" speed="3.65" length="4.67" shape="842.53,1152.73 841.94,1154.04 841.21,1154.56 840.36,1154.30 839.37,1153.24"/>
    </edge>
    <edge id=":161_0" function="internal">
        <lane id=":161_0_0" index="0" disallow="tram rail_urban rail rail_electric rail_fast ship" speed="13.89" length="11.26" shape="726.81,1244.62 725.07,1233.49"/>
    </edge>
    <edge id=":161_1" function="internal">
        <lane id=":161_1_0" index="0" disallow="tram rail_urban rail rail_electric rail_fast ship" speed="3.65" length="1.44" shape="726.81,1244.62 727.41,1243.31"/>
    </edge>
    <edge id=":161_6" function="internal">
        <lane id=":161_6_0" index="0" disallow="tram rail_urban rail rail_electric rail_fast ship" speed="3.65" length="3.23" shape="727.41,1243.31 728.14,1242.78 728.99,1243.05 729.97,1244.11"/>
    </edge>
    <edge id=":161_2" function="internal">
        <lane id=":161_2_0" index="0" disallow="tram rail_urban rail rail_electric rail_fast ship" speed="6.44" length="9.03" shape="734.68,1237.81 732.28,1238.47 730.70,1239.74 729.93,1241.62 729.97,1244.11"/>
    </edge>
    <edge id=":161_3" function="internal">
        <lane id=":161_3_0" index="0" disallow="tram rail_urban rail rail_electric rail_fast ship" speed="7.39" length="11.78" shape="734.68,1237.81 730.78,1237.96 727.88,1237.29 725.97,1235.80 725.07,1233.49"/>
    </edge>
    <edge id=":161_4" function="internal">
        <lane id=":161_4_0" index="0" disallow="tram rail_urban rail rail_electric rail_fast ship" speed="13.89" length="11.22" shape="728.24,1233.02 729.97,1244.11"/>
    </edge>
    <edge id=":161_5" function="internal">
        <lane id=":161_5_0" index="0" disallow="tram rail_urban rail rail_electric rail_fast ship" speed="3.65" length="1.44" shape="728.24,1233.02 727.62,1234.33"/>
    </edge>
    <edge id=":161_7" function="internal">
        <lane id=":161_7_0" index="0" disallow="tram rail_urban rail rail_electric rail_fast ship" speed="3.65" length="3.23" shape="727.62,1234.33 726.89,1234.84 726.04,1234.56 725.07,1233.49"/>
    </edge>
    <edge id=":162_0" function="internal">
        <lane id=":162_0_0" index="0" disallow="tram rail_urban rail rail_electric rail_fast ship" speed="22.22" length="14.36" shape="677.13,1723.06 675.09,1708.85"/>
    </edge>
    <edge id=":162_1" function="internal">
        <lane id=":162_1_0" index="0" disallow="tram rail_urban rail rail_electric rail_fast ship" speed="7.38" length="11.74" shape="681.92,1716.79 679.41,1716.56 677.43,1715.16 675.99,1712.59 675.09,1708.85"/>
    </edge>
    <edge id=":162_2" function="internal">
        <lane id=":162_2_0" index="0" disallow="tram rail_urban rail rail_electric rail_fast ship" speed="6.54" length="9.00" shape="670.37,1715.22 672.74,1714.48 674.31,1713.17 675.09,1711.29 675.09,1708.85"/>
    </edge>
    <edge id=":163_0" function="internal">
        <lane id=":163_0_0" index="0" disallow="tram rail_urban rail rail_electric rail_fast ship" speed="3.90" length="2.57" shape="579.99,1303.47 579.79,1302.80 579.42,1302.35 578.89,1302.12 578.19,1302.11"/>
    </edge>
    <edge id=":164_0" function="internal">
        <lane id=":164_0_0" index="0" disallow="tram rail_urban rail rail_electric rail_fast ship" speed="3.90" length="2.55" shape="785.50,1232.92 785.30,1232.25 784.94,1231.80 784.41,1231.57 783.71,1231.56"/>
    </edge>
    <edge id=":165_0" function="internal">
        <lane id=":165_0_0" index="0" disallow="tram rail_urban rail rail_electric rail_fast ship" speed="6.52" length="9.00" shape="876.69,1162.50 876.00,1160.13 874.72,1158.54 872.85,1157.74 870.40,1157.72"/>
    </edge>
    <edge id=":165_1" function="internal">
        <lane id=":165_1_0" index="0" disallow="tram rail_urban rail rail_electric rail_fast ship" speed="7.32" length="11.67" shape="876.69,1162.50 876.49,1158.66 877.13,1155.80 878.62,1153.92 880.95,1153.03"/>
    </edge>
    <edge id=":165_2" function="internal">
        <lane id=":165_2_0" index="0" disallow="tram rail_urban rail rail_electric rail_fast ship" speed="13.89" length="11.12" shape="881.41,1156.19 870.40,1157.72"/>
    </edge>
    <edge id=":165_3" function="internal">
        <lane id=":165_3_0" index="0" disallow="tram rail_urban rail rail_electric rail_fast ship" speed="3.65" length="1.44" shape="881.41,1156.19 880.11,1155.58"/>
    </edge>
    <edge id=":165_6" function="internal">
        <lane id=":165_6_0" index="0" disallow="tram rail_urban rail rail_electric rail_fast ship" speed="3.65" length="3.23" shape="880.11,1155.58 879.60,1154.84 879.88,1153.99 880.95,1153.03"/>
    </edge>
    <edge id=":165_4" function="internal">
        <lane id=":165_4_0" index="0" disallow="tram rail_urban rail rail_electric rail_fast ship" speed="13.89" length="11.08" shape="869.97,1154.55 880.95,1153.03"/>
    </edge>
    <edge id=":165_5" function="internal">
        <lane id=":165_5_0" index="0" disallow="tram rail_urban rail rail_electric rail_fast ship" speed="3.65" length="1.44" shape="869.97,1154.55 871.27,1155.18"/>
    </edge>
    <edge id=":165_7" function="internal">
        <lane id=":165_7_0" index="0" disallow="tram rail_urban rail rail_electric rail_fast ship" speed="3.65" length="3.23" shape="871.27,1155.18 871.77,1155.92 871.48,1156.76 870.40,1157.72"/>
    </edge>
    <edge id=":166_0" function="internal">
        <lane id=":166_0_0" index="0" disallow="tram rail_urban rail rail_electric rail_fast ship" speed="6.64" length="8.94" shape="647.98,1018.60 645.65,1019.29 644.05,1020.56 643.18,1022.41 643.04,1024.84"/>
    </edge>
    <edge id=":166_1" function="internal">
        <lane id=":166_1_0" index="0" disallow="tram rail_urban rail rail_electric rail_fast ship" speed="13.89" length="10.86" shape="647.98,1018.60 637.23,1020.16"/>
    </edge>
    <edge id=":166_2" function="internal">
        <lane id=":166_2_0" index="0" disallow="tram rail_urban rail rail_electric rail_fast ship" speed="13.89" length="10.83" shape="642.03,1014.05 643.04,1024.84"/>
    </edge>
    <edge id=":166_3" function="internal">
        <lane id=":166_3_0" index="0" disallow="tram rail_urban rail rail_electric rail_fast ship" speed="6.48" length="3.84" shape="642.03,1014.05 641.96,1016.45 641.37,1017.76"/>
    </edge>
    <edge id=":166_4" function="internal">
        <lane id=":166_4_0" index="0" disallow="tram rail_urban rail rail_electric rail_fast ship" speed="6.48" length="4.99" shape="641.37,1017.76 641.14,1018.26 639.56,1019.50 637.23,1020.16"/>
    </edge>
    <edge id=":167_0" function="internal">
        <lane id=":167_0_0" index="0" disallow="tram rail_urban rail rail_electric rail_fast ship" speed="13.89" length="0.29" shape="884.32,1215.93 884.28,1215.64"/>
    </edge>
    <edge id=":168_0" function="internal">
        <lane id=":168_0_0" index="0" disallow="tram rail_urban rail rail_electric rail_fast ship" speed="6.52" length="8.96" shape="1117.91,1828.92 1117.21,1826.58 1115.92,1825.02 1114.05,1824.22 1111.58,1824.20"/>
    </edge>
    <edge id=":168_1" function="internal">
        <lane id=":168_1_0" index="0" disallow="tram rail_urban rail rail_electric rail_fast ship" speed="13.89" length="11.06" shape="1117.91,1828.92 1116.28,1817.98"/>