<?xml version="1.0" encoding="UTF-8"?>

<!-- generated on 2022-10-09 18:03:47 by Eclipse SUMO netconvert Version 1.12.0
<configuration xmlns:xsi="http://www.w3.org/2001/XMLSchema-instance" xsi:noNamespaceSchemaLocation="http://sumo.dlr.de/xsd/netconvertConfiguration.xsd">

    <input>
        <sumo-net-file value="/home/svadlmat/UTC/utc/data/maps/sumo/Sydney.net.xml"/>
    </input>

    <output>
        <output-file value="/home/svadlmat/UTC/utc/data/scenarios/test/maps/networks/test_default_sg.net.xml"/>
    </output>

    <processing>
        <geometry.min-radius.fix.railways value="false"/>
        <geometry.max-grade.fix value="false"/>
        <offset.disable-normalization value="true"/>
        <lefthand value="false"/>
    </processing>

    <edge_removal>
        <keep-edges.explicit value="353,682,721,639,334,136,793,331,867,425,53,174,484,699,97,707,839,144,127,98,406,135,750,791,1021,365,1009,735,708,782,741,391,1002,584,969,552,110,99,342,443,670,17,590,102,340,829,502,148,525,29,837,739,306,869,469,13,168,952,926,2,1005,116,904,638,18,731,886,506,698,290,928,792,840,647,253,830,655,878,944,367,89,111,480,747,615,551,771,417,407,953,855,137,250,510,746,395,294,496,1007,963,126,954,806,134,810,535,165,595,369,34,795,923,347,494,197,939,504,305,578,166,103,706,733,8,515,891,968,42,439,479,889,563,370,546,577,958,686,44,52,909,228,74,833,397,380,764,471,898,115,237,283,879,583,404,410,784,796,927,164,93,559,811,936,637,874,543,897,827,131,442,544,862,503,1022,769,145,381,378,571,512,962,364,236,244,159,441,658,307,627,812,526,861,558,175,284,507,710,588,233,478,146,917,788,444,77,852,379,752,783,957,587,296,950,673,6,756,713,295,732,335,376,994,16,178,107,54,736,884,21,726,896,1003,749,516,509,940,938,339,550,709,287,361,438,908,757,937,501,890,688,671,906,683,674,245,905,924,396,964,549,527,147,130,368,893,895,734,511,428,86,632,477,1004,547,996,1057,372,405,894,189,366,1010,805,915,264,211,1059,765,730,842,157,62,941,524,1017,807,1031,866,35,440,554,51,960,1019,737,763,553,738,885,766,825,23,916,400,411,75,76,1020,14,485,38,591,288,424,520,725,983,377,47,374,83,476,513,532,423,373,695,1029,129,101,243,230,719,170,630,433,82,768,317,748,781,876,192,508,826,124,762,942,24,427,371,403,611,55,125,523,907,585,252,875,657,538,416,967,1030,20,39,56,903,133,118,745,808,430,212,751,541,5,545,892,774,483,539,84,594,767,505,265,498,22,947,387,797,899,631,268,161,616,394,755,213,472,685,251,104,46,285,943,640,1018,770,742,332,426,931,15,656,1006,548,336,536,628,932,972,19,1032,315,887,754,132,263,112,531,740,190,809,828,382,90,622,910,858,123,859,399,229,286,961,608,629,481,880,951,659,415"/>
    </edge_removal>

    <junctions>
        <no-turnarounds value="true"/>
        <junctions.corner-detail value="5"/>
        <junctions.limit-turn-speed value="5.5"/>
        <rectangular-lane-cut value="false"/>
    </junctions>

    <pedestrian>
        <walkingareas value="false"/>
    </pedestrian>

    <report>
        <aggregate-warnings value="5"/>
    </report>

</configuration>
-->

<net version="1.9" junctionCornerDetail="5" limitTurnSpeed="5.50" xmlns:xsi="http://www.w3.org/2001/XMLSchema-instance" xsi:noNamespaceSchemaLocation="http://sumo.dlr.de/xsd/net_file.xsd">

    <location netOffset="-336586.08,3754670.31" convBoundary="75.04,12.34,2547.76,2196.77" origBoundary="151.232525,-33.920080,151.266296,-33.899237" projParameter="+proj=utm +zone=56 +ellps=WGS84 +datum=WGS84 +units=m +no_defs"/>

    <type id="highway.bridleway" priority="1" numLanes="1" speed="2.78" allow="pedestrian" oneway="1" width="2.00"/>
    <type id="highway.bus_guideway" priority="1" numLanes="1" speed="27.78" allow="bus" oneway="1"/>
    <type id="highway.cycleway" priority="1" numLanes="1" speed="8.33" allow="bicycle" oneway="0" width="1.00"/>
    <type id="highway.footway" priority="1" numLanes="1" speed="2.78" allow="pedestrian" oneway="1" width="2.00"/>
    <type id="highway.ford" priority="1" numLanes="1" speed="2.78" allow="army" oneway="0"/>
    <type id="highway.living_street" priority="2" numLanes="1" speed="2.78" disallow="tram rail_urban rail rail_electric rail_fast ship" oneway="0"/>
    <type id="highway.motorway" priority="14" numLanes="2" speed="39.44" allow="private emergency authority army vip passenger hov taxi bus coach delivery truck trailer motorcycle evehicle custom1 custom2" oneway="1"/>
    <type id="highway.motorway_link" priority="9" numLanes="1" speed="22.22" allow="private emergency authority army vip passenger hov taxi bus coach delivery truck trailer motorcycle evehicle custom1 custom2" oneway="1"/>
    <type id="highway.path" priority="1" numLanes="1" speed="2.78" allow="pedestrian bicycle" oneway="0" width="2.00"/>
    <type id="highway.pedestrian" priority="1" numLanes="1" speed="2.78" allow="pedestrian" oneway="1" width="2.00"/>
    <type id="highway.primary" priority="12" numLanes="2" speed="27.78" disallow="tram rail_urban rail rail_electric rail_fast ship" oneway="0"/>
    <type id="highway.primary_link" priority="7" numLanes="1" speed="22.22" disallow="tram rail_urban rail rail_electric rail_fast ship" oneway="0"/>
    <type id="highway.raceway" priority="15" numLanes="2" speed="83.33" allow="vip" oneway="0"/>
    <type id="highway.residential" priority="3" numLanes="1" speed="13.89" disallow="tram rail_urban rail rail_electric rail_fast ship" oneway="0"/>
    <type id="highway.secondary" priority="11" numLanes="1" speed="27.78" disallow="tram rail_urban rail rail_electric rail_fast ship" oneway="0"/>
    <type id="highway.secondary_link" priority="6" numLanes="1" speed="22.22" disallow="tram rail_urban rail rail_electric rail_fast ship" oneway="0"/>
    <type id="highway.service" priority="1" numLanes="1" speed="5.56" allow="pedestrian delivery bicycle" oneway="0"/>
    <type id="highway.stairs" priority="1" numLanes="1" speed="1.39" allow="pedestrian" oneway="1" width="2.00"/>
    <type id="highway.step" priority="1" numLanes="1" speed="1.39" allow="pedestrian" oneway="1" width="2.00"/>
    <type id="highway.steps" priority="1" numLanes="1" speed="1.39" allow="pedestrian" oneway="1" width="2.00"/>
    <type id="highway.tertiary" priority="10" numLanes="1" speed="22.22" disallow="tram rail_urban rail rail_electric rail_fast ship" oneway="0"/>
    <type id="highway.tertiary_link" priority="5" numLanes="1" speed="22.22" disallow="tram rail_urban rail rail_electric rail_fast ship" oneway="0"/>
    <type id="highway.track" priority="1" numLanes="1" speed="5.56" allow="pedestrian motorcycle moped bicycle" oneway="0"/>
    <type id="highway.trunk" priority="13" numLanes="2" speed="27.78" disallow="pedestrian bicycle tram rail_urban rail rail_electric rail_fast ship" oneway="0"/>
    <type id="highway.trunk_link" priority="8" numLanes="1" speed="22.22" disallow="pedestrian bicycle tram rail_urban rail rail_electric rail_fast ship" oneway="0"/>
    <type id="highway.unclassified" priority="4" numLanes="1" speed="13.89" disallow="tram rail_urban rail rail_electric rail_fast ship" oneway="0"/>
    <type id="highway.unsurfaced" priority="1" numLanes="1" speed="8.33" disallow="tram rail_urban rail rail_electric rail_fast ship" oneway="0"/>
    <type id="railway.highspeed" priority="21" numLanes="1" speed="69.44" allow="rail_fast" oneway="1"/>
    <type id="railway.light_rail" priority="19" numLanes="1" speed="27.78" allow="rail_urban" oneway="1"/>
    <type id="railway.preserved" priority="16" numLanes="1" speed="27.78" allow="rail" oneway="1"/>
    <type id="railway.rail" priority="20" numLanes="1" speed="44.44" allow="rail" oneway="1"/>
    <type id="railway.subway" priority="18" numLanes="1" speed="27.78" allow="rail_urban" oneway="1"/>
    <type id="railway.tram" priority="17" numLanes="1" speed="13.89" allow="tram" oneway="1"/>

    <edge id=":1_0" function="internal">
        <lane id=":1_0_0" index="0" disallow="tram rail_urban rail rail_electric rail_fast ship" speed="3.93" length="3.39" shape="1578.29,1025.21 1578.23,1026.20 1578.52,1026.84 1579.16,1027.14 1580.15,1027.10"/>
    </edge>
    <edge id=":101_0" function="internal">
        <lane id=":101_0_0" index="0" disallow="tram rail_urban rail rail_electric rail_fast ship" speed="22.22" length="11.21" shape="1711.61,592.22 1700.55,593.99"/>
    </edge>
    <edge id=":101_1" function="internal">
        <lane id=":101_1_0" index="0" disallow="tram rail_urban rail rail_electric rail_fast ship" speed="6.50" length="9.03" shape="1705.19,587.59 1705.24,590.06 1704.48,591.95 1702.91,593.27 1700.55,593.99"/>
    </edge>
    <edge id=":103_0" function="internal">
        <lane id=":103_0_0" index="0" disallow="tram rail_urban rail rail_electric rail_fast ship" speed="6.54" length="8.92" shape="2208.26,246.85 2205.95,247.58 2204.41,248.88 2203.64,250.76 2203.62,253.21"/>
    </edge>
    <edge id=":103_1" function="internal">
        <lane id=":103_1_0" index="0" disallow="tram rail_urban rail rail_electric rail_fast ship" speed="13.89" length="10.98" shape="2208.26,246.85 2197.42,248.62"/>
    </edge>
    <edge id=":104_0" function="internal">
        <lane id=":104_0_0" index="0" disallow="tram rail_urban rail rail_electric rail_fast ship" speed="3.90" length="2.59" shape="1536.40,384.14 1536.41,384.85 1536.19,385.39 1535.75,385.76 1535.07,385.97"/>
    </edge>
    <edge id=":107_0" function="internal">
        <lane id=":107_0_0" index="0" disallow="tram rail_urban rail rail_electric rail_fast ship" speed="13.89" length="0.30" shape="948.66,199.83 948.37,199.89"/>
    </edge>
    <edge id=":108_0" function="internal">
        <lane id=":108_0_0" index="0" disallow="tram rail_urban rail rail_electric rail_fast ship" speed="13.89" length="10.68" shape="2321.54,222.48 2323.11,233.04"/>
    </edge>
    <edge id=":108_1" function="internal">
        <lane id=":108_1_0" index="0" disallow="tram rail_urban rail rail_electric rail_fast ship" speed="6.57" length="8.75" shape="2321.54,222.48 2321.53,224.82 2320.76,226.65 2319.25,227.97 2316.97,228.78"/>
    </edge>
    <edge id=":110_0" function="internal">
        <lane id=":110_0_0" index="0" disallow="tram rail_urban rail rail_electric rail_fast ship" speed="13.89" length="0.10" shape="1704.03,238.50 1704.03,238.50"/>
    </edge>
    <edge id=":112_0" function="internal">
        <lane id=":112_0_0" index="0" disallow="tram rail_urban rail rail_electric rail_fast ship" speed="13.89" length="0.29" shape="1407.68,304.58 1407.39,304.62"/>
    </edge>
    <edge id=":114_0" function="internal">
        <lane id=":114_0_0" index="0" disallow="tram rail_urban rail rail_electric rail_fast ship" speed="4.00" length="1.74" shape="2078.36,177.96 2078.16,178.37 2077.89,178.68 2077.53,178.90 2077.10,179.02"/>
    </edge>
    <edge id=":116_0" function="internal">
        <lane id=":116_0_0" index="0" disallow="tram rail_urban rail rail_electric rail_fast ship" speed="13.89" length="0.29" shape="444.08,626.20 444.03,625.92"/>
    </edge>
    <edge id=":117_0" function="internal">
        <lane id=":117_0_0" index="0" disallow="tram rail_urban rail rail_electric rail_fast ship" speed="6.37" length="9.04" shape="1470.06,644.17 1469.31,641.78 1467.98,640.26 1466.07,639.60 1463.58,639.81"/>
    </edge>
    <edge id=":117_1" function="internal">
        <lane id=":117_1_0" index="0" disallow="tram rail_urban rail rail_electric rail_fast ship" speed="8.28" length="14.27" shape="1470.06,644.17 1469.94,640.20 1471.03,637.08 1473.31,634.79 1476.79,633.35"/>
    </edge>
    <edge id=":117_2" function="internal">
        <lane id=":117_2_0" index="0" disallow="tram rail_urban rail rail_electric rail_fast ship" speed="3.65" length="4.67" shape="1470.06,644.17 1470.65,642.85 1471.38,642.33 1472.23,642.60 1473.22,643.65"/>
    </edge>
    <edge id=":117_3" function="internal">
        <lane id=":117_3_0" index="0" disallow="tram rail_urban rail rail_electric rail_fast ship" speed="6.84" length="9.42" shape="1477.57,636.46 1475.31,637.40 1473.83,638.92 1473.13,641.00 1473.22,643.65"/>
    </edge>
    <edge id=":117_4" function="internal">
        <lane id=":117_4_0" index="0" disallow="tram rail_urban rail rail_electric rail_fast ship" speed="27.78" length="14.39" shape="1477.57,636.46 1463.58,639.81"/>
    </edge>
    <edge id=":117_5" function="internal">
        <lane id=":117_5_0" index="0" disallow="tram rail_urban rail rail_electric rail_fast ship" speed="3.65" length="1.44" shape="1477.57,636.46 1476.21,635.97"/>
    </edge>
    <edge id=":117_9" function="internal">
        <lane id=":117_9_0" index="0" disallow="tram rail_urban rail rail_electric rail_fast ship" speed="3.65" length="3.23" shape="1476.21,635.97 1475.63,635.29 1475.82,634.42 1476.79,633.35"/>
    </edge>
    <edge id=":117_6" function="internal">
        <lane id=":117_6_0" index="0" disallow="tram rail_urban rail rail_electric rail_fast ship" speed="27.78" length="14.32" shape="1462.86,636.69 1476.79,633.35"/>
    </edge>
    <edge id=":117_7" function="internal">
        <lane id=":117_7_0" index="0" disallow="tram rail_urban rail rail_electric rail_fast ship" speed="7.89" length="4.00" shape="1462.86,636.69 1466.85,636.36"/>
    </edge>
    <edge id=":117_8" function="internal">
        <lane id=":117_8_0" index="0" disallow="tram rail_urban rail rail_electric rail_fast ship" speed="3.65" length="1.44" shape="1462.86,636.69 1464.21,637.20"/>
    </edge>
    <edge id=":117_10" function="internal">
        <lane id=":117_10_0" index="0" disallow="tram rail_urban rail rail_electric rail_fast ship" speed="7.89" length="10.45" shape="1466.85,636.36 1469.90,637.41 1472.02,639.84 1473.22,643.65"/>
    </edge>
    <edge id=":117_11" function="internal">
        <lane id=":117_11_0" index="0" disallow="tram rail_urban rail rail_electric rail_fast ship" speed="3.65" length="3.23" shape="1464.21,637.20 1464.78,637.89 1464.57,638.76 1463.58,639.81"/>
    </edge>
    <edge id=":118_0" function="internal">
        <lane id=":118_0_0" index="0" disallow="tram rail_urban rail rail_electric rail_fast ship" speed="3.97" length="1.91" shape="2087.80,187.57 2087.78,187.07 2087.90,186.63 2088.15,186.26 2088.55,185.95"/>
    </edge>
    <edge id=":119_0" function="internal">
        <lane id=":119_0_0" index="0" disallow="tram rail_urban rail rail_electric rail_fast ship" speed="13.89" length="0.26" shape="1813.76,222.84 1813.50,222.88"/>
    </edge>
    <edge id=":120_0" function="internal">
        <lane id=":120_0_0" index="0" disallow="tram rail_urban rail rail_electric rail_fast ship" speed="8.23" length="31.72" shape="1999.02,717.09 1988.87,711.47 1985.25,710.22 1988.15,713.34 1997.57,720.83"/>
    </edge>
    <edge id=":120_1" function="internal">
        <lane id=":120_1_0" index="0" disallow="tram rail_urban rail rail_electric rail_fast ship" speed="13.89" length="14.57" shape="1999.02,717.09 1995.53,716.15 1991.77,716.30 1988.09,716.34 1984.81,715.10"/>
    </edge>
    <edge id=":120_2" function="internal">
        <lane id=":120_2_0" index="0" disallow="tram rail_urban rail rail_electric rail_fast ship" speed="13.89" length="13.61" shape="1986.76,712.56 1997.57,720.83"/>
    </edge>
    <edge id=":120_3" function="internal">
        <lane id=":120_3_0" index="0" disallow="tram rail_urban rail rail_electric rail_fast ship" speed="3.65" length="1.15" shape="1986.76,712.56 1987.13,713.66"/>
    </edge>
    <edge id=":120_4" function="internal">
        <lane id=":120_4_0" index="0" disallow="tram rail_urban rail rail_electric rail_fast ship" speed="3.65" length="3.52" shape="1987.13,713.66 1987.22,713.93 1987.05,714.81 1986.25,715.20 1984.81,715.10"/>
    </edge>
    <edge id=":122_0" function="internal">
        <lane id=":122_0_0" index="0" disallow="tram rail_urban rail rail_electric rail_fast ship" speed="3.91" length="2.52" shape="2211.73,313.54 2211.72,314.22 2211.50,314.75 2211.06,315.12 2210.41,315.33"/>
    </edge>
    <edge id=":124_0" function="internal">
        <lane id=":124_0_0" index="0" disallow="tram rail_urban rail rail_electric rail_fast ship" speed="27.78" length="0.30" shape="1389.74,676.37 1389.48,676.53"/>
    </edge>
    <edge id=":124_1" function="internal">
        <lane id=":124_1_0" index="0" disallow="tram rail_urban rail rail_electric rail_fast ship" speed="3.65" length="2.34" shape="1389.74,676.37 1388.30,676.35 1387.52,675.90"/>
    </edge>
    <edge id=":124_4" function="internal">
        <lane id=":124_4_0" index="0" disallow="tram rail_urban rail rail_electric rail_fast ship" speed="3.65" length="2.34" shape="1387.52,675.90 1387.42,675.01 1387.99,673.69"/>
    </edge>
    <edge id=":124_2" function="internal">
        <lane id=":124_2_0" index="0" disallow="tram rail_urban rail rail_electric rail_fast ship" speed="27.78" length="0.29" shape="1387.75,673.85 1387.99,673.69"/>
    </edge>
    <edge id=":124_3" function="internal">
        <lane id=":124_3_0" index="0" disallow="tram rail_urban rail rail_electric rail_fast ship" speed="3.65" length="2.34" shape="1387.75,673.85 1389.19,673.87 1389.96,674.32"/>
    </edge>
    <edge id=":124_5" function="internal">
        <lane id=":124_5_0" index="0" disallow="tram rail_urban rail rail_electric rail_fast ship" speed="3.65" length="2.34" shape="1389.96,674.32 1390.06,675.21 1389.48,676.53"/>
    </edge>
    <edge id=":127_0" function="internal">
        <lane id=":127_0_0" index="0" disallow="tram rail_urban rail rail_electric rail_fast ship" speed="3.90" length="2.58" shape="1533.40,355.44 1532.72,355.65 1532.27,356.03 1532.06,356.57 1532.07,357.28"/>
    </edge>
    <edge id=":129_0" function="internal">
        <lane id=":129_0_0" index="0" disallow="tram rail_urban rail rail_electric rail_fast ship" speed="22.22" length="0.10" shape="1918.41,1529.81 1918.47,1529.86"/>
    </edge>
    <edge id=":130_0" function="internal">
        <lane id=":130_0_0" index="0" disallow="tram rail_urban rail rail_electric rail_fast ship" speed="7.38" length="7.24" shape="1838.69,1080.88 1838.04,1082.33 1837.88,1083.97 1838.21,1085.78 1839.03,1087.77"/>
    </edge>
    <edge id=":130_1" function="internal">
        <lane id=":130_1_0" index="0" disallow="tram rail_urban rail rail_electric rail_fast ship" speed="13.89" length="7.70" shape="1838.69,1080.88 1837.44,1082.79 1836.52,1084.07 1835.44,1085.20 1833.72,1086.70"/>
    </edge>
    <edge id=":132_0" function="internal">
        <lane id=":132_0_0" index="0" disallow="tram rail_urban rail rail_electric rail_fast ship" speed="6.34" length="9.04" shape="1767.78,1123.92 1767.04,1121.53 1765.71,1120.01 1763.80,1119.37 1761.31,1119.61"/>
    </edge>
    <edge id=":132_1" function="internal">
        <lane id=":132_1_0" index="0" disallow="tram rail_urban rail rail_electric rail_fast ship" speed="3.65" length="4.67" shape="1767.78,1123.92 1768.38,1122.61 1769.11,1122.09 1769.96,1122.36 1770.94,1123.42"/>
    </edge>
    <edge id=":132_2" function="internal">
        <lane id=":132_2_0" index="0" disallow="tram rail_urban rail rail_electric rail_fast ship" speed="8.56" length="13.40" shape="1778.58,1113.68 1774.87,1115.64 1772.36,1117.92 1771.05,1120.51 1770.94,1123.42"/>
    </edge>
    <edge id=":132_3" function="internal">
        <lane id=":132_3_0" index="0" disallow="tram rail_urban rail rail_electric rail_fast ship" speed="15.28" length="18.27" shape="1778.58,1113.68 1774.61,1115.25 1770.03,1116.93 1765.41,1118.46 1761.31,1119.61"/>
    </edge>
    <edge id=":132_4" function="internal">
        <lane id=":132_4_0" index="0" disallow="tram rail_urban rail rail_electric rail_fast ship" speed="27.78" length="15.11" shape="1771.81,1108.42 1772.06,1113.20 1771.52,1116.85 1770.91,1120.04 1770.94,1123.42"/>
    </edge>
    <edge id=":132_5" function="internal">
        <lane id=":132_5_0" index="0" disallow="tram rail_urban rail rail_electric rail_fast ship" speed="8.34" length="14.54" shape="1768.65,1108.92 1768.70,1112.80 1767.49,1115.88 1765.03,1118.15 1761.31,1119.61"/>
    </edge>
    <edge id=":132_6" function="internal">
        <lane id=":132_6_0" index="0" disallow="tram rail_urban rail rail_electric rail_fast ship" speed="7.86" length="3.89" shape="1760.55,1116.51 1764.42,1116.13"/>
    </edge>
    <edge id=":132_7" function="internal">
        <lane id=":132_7_0" index="0" disallow="tram rail_urban rail rail_electric rail_fast ship" speed="3.65" length="1.44" shape="1760.55,1116.51 1761.90,1117.00"/>
    </edge>
    <edge id=":132_8" function="internal">
        <lane id=":132_8_0" index="0" disallow="tram rail_urban rail rail_electric rail_fast ship" speed="7.86" length="10.63" shape="1764.42,1116.13 1764.55,1116.12 1767.62,1117.14 1769.75,1119.58 1770.94,1123.42"/>
    </edge>
    <edge id=":132_9" function="internal">
        <lane id=":132_9_0" index="0" disallow="tram rail_urban rail rail_electric rail_fast ship" speed="3.65" length="3.23" shape="1761.90,1117.00 1762.48,1117.68 1762.28,1118.55 1761.31,1119.61"/>
    </edge>
    <edge id=":133_0" function="internal">
        <lane id=":133_0_0" index="0" disallow="tram rail_urban rail rail_electric rail_fast ship" speed="6.52" length="9.02" shape="1937.84,969.02 1935.49,969.74 1933.93,971.05 1933.15,972.94 1933.17,975.42"/>
    </edge>
    <edge id=":133_1" function="internal">
        <lane id=":133_1_0" index="0" disallow="tram rail_urban rail rail_electric rail_fast ship" speed="13.89" length="11.32" shape="1937.84,969.02 1934.70,969.51 1932.25,969.93 1929.82,970.46 1926.76,971.28"/>
    </edge>
    <edge id=":134_0" function="internal">
        <lane id=":134_0_0" index="0" disallow="tram rail_urban rail rail_electric rail_fast ship" speed="18.05" length="5.19" shape="2070.65,1329.19 2069.59,1330.29 2068.76,1330.93 2067.82,1331.45 2066.48,1332.20"/>
    </edge>
    <edge id=":135_0" function="internal">
        <lane id=":135_0_0" index="0" disallow="tram rail_urban rail rail_electric rail_fast ship" speed="6.51" length="9.03" shape="1845.85,1202.36 1843.48,1203.11 1841.93,1204.43 1841.18,1206.32 1841.23,1208.80"/>
    </edge>
    <edge id=":135_1" function="internal">
        <lane id=":135_1_0" index="0" disallow="tram rail_urban rail rail_electric rail_fast ship" speed="13.89" length="11.20" shape="1845.85,1202.36 1834.79,1204.18"/>
    </edge>
    <edge id=":135_2" function="internal">
        <lane id=":135_2_0" index="0" disallow="tram rail_urban rail rail_electric rail_fast ship" speed="7.33" length="2.51" shape="1834.28,1201.02 1836.78,1201.16"/>
    </edge>
    <edge id=":135_3" function="internal">
        <lane id=":135_3_0" index="0" disallow="tram rail_urban rail rail_electric rail_fast ship" speed="3.65" length="1.44" shape="1834.28,1201.02 1835.59,1201.61"/>
    </edge>
    <edge id=":135_4" function="internal">
        <lane id=":135_4_0" index="0" disallow="tram rail_urban rail rail_electric rail_fast ship" speed="7.33" length="9.22" shape="1836.78,1201.16 1838.78,1202.51 1840.26,1205.05 1841.23,1208.80"/>
    </edge>
    <edge id=":135_5" function="internal">
        <lane id=":135_5_0" index="0" disallow="tram rail_urban rail rail_electric rail_fast ship" speed="3.65" length="3.23" shape="1835.59,1201.61 1836.11,1202.34 1835.85,1203.19 1834.79,1204.18"/>
    </edge>
    <edge id=":136_0" function="internal">
        <lane id=":136_0_0" index="0" disallow="tram rail_urban rail rail_electric rail_fast ship" speed="22.23" length="8.26" shape="1765.00,1086.42 1765.98,1088.71 1767.35,1090.01 1768.68,1091.31 1769.53,1093.63"/>
        <lane id=":136_0_1" index="1" disallow="tram rail_urban rail rail_electric rail_fast ship" speed="22.23" length="8.26" shape="1765.00,1086.42 1766.37,1094.10"/>
    </edge>
    <edge id=":137_0" function="internal">
        <lane id=":137_0_0" index="0" disallow="tram rail_urban rail rail_electric rail_fast ship" speed="13.89" length="0.31" shape="1722.95,1446.81 1722.64,1446.82"/>
    </edge>
    <edge id=":137_1" function="internal">
        <lane id=":137_1_0" index="0" disallow="tram rail_urban rail rail_electric rail_fast ship" speed="3.65" length="2.34" shape="1722.95,1446.81 1721.72,1446.05 1721.30,1445.27"/>
    </edge>
    <edge id=":137_4" function="internal">
        <lane id=":137_4_0" index="0" disallow="tram rail_urban rail rail_electric rail_fast ship" speed="3.65" length="2.34" shape="1721.30,1445.27 1721.67,1444.45 1722.85,1443.62"/>
    </edge>
    <edge id=":137_2" function="internal">
        <lane id=":137_2_0" index="0" disallow="tram rail_urban rail rail_electric rail_fast ship" speed="13.89" length="0.29" shape="1722.56,1443.62 1722.85,1443.62"/>
    </edge>
    <edge id=":137_3" function="internal">
        <lane id=":137_3_0" index="0" disallow="tram rail_urban rail rail_electric rail_fast ship" speed="3.65" length="2.34" shape="1722.56,1443.62 1723.78,1444.39 1724.20,1445.18"/>
    </edge>
    <edge id=":137_5" function="internal">
        <lane id=":137_5_0" index="0" disallow="tram rail_urban rail rail_electric rail_fast ship" speed="3.65" length="2.34" shape="1724.20,1445.18 1723.82,1445.99 1722.64,1446.82"/>
    </edge>
    <edge id=":139_0" function="internal">
        <lane id=":139_0_0" index="0" disallow="tram rail_urban rail rail_electric rail_fast ship" speed="22.22" length="9.33" shape="1979.60,1667.94 1981.16,1677.13"/>
    </edge>
    <edge id=":139_1" function="internal">
        <lane id=":139_1_0" index="0" disallow="tram rail_urban rail rail_electric rail_fast ship" speed="6.06" length="7.80" shape="1979.60,1667.94 1979.80,1670.70 1979.49,1672.74 1978.67,1674.04 1977.35,1674.60"/>
    </edge>
    <edge id=":139_2" function="internal">
        <lane id=":139_2_0" index="0" disallow="tram rail_urban rail rail_electric rail_fast ship" speed="6.22" length="7.76" shape="1976.95,1671.43 1978.34,1671.64 1979.51,1672.66 1980.45,1674.49 1981.16,1677.13"/>
    </edge>
    <edge id=":139_3" function="internal">
        <lane id=":139_3_0" index="0" disallow="tram rail_urban rail rail_electric rail_fast ship" speed="3.65" length="4.67" shape="1976.95,1671.43 1978.24,1672.07 1978.73,1672.81 1978.44,1673.66 1977.35,1674.60"/>
    </edge>
    <edge id=":140_0" function="internal">
        <lane id=":140_0_0" index="0" disallow="tram rail_urban rail rail_electric rail_fast ship" speed="6.50" length="9.03" shape="1524.19,1629.39 1524.91,1631.76 1526.22,1633.33 1528.11,1634.09 1530.58,1634.05"/>
    </edge>
    <edge id=":140_1" function="internal">
        <lane id=":140_1_0" index="0" disallow="tram rail_urban rail rail_electric rail_fast ship" speed="13.89" length="11.20" shape="1524.19,1629.39 1525.90,1640.46"/>
    </edge>
    <edge id=":142_0" function="internal">
        <lane id=":142_0_0" index="0" disallow="tram rail_urban rail rail_electric rail_fast ship" speed="10.69" length="4.87" shape="2069.55,1337.10 2069.83,1338.45 2069.67,1339.41 2069.29,1340.40 2068.91,1341.80"/>
    </edge>
    <edge id=":143_0" function="internal">
        <lane id=":143_0_0" index="0" disallow="tram rail_urban rail rail_electric rail_fast ship" speed="11.11" length="0.29" shape="2008.72,1479.46 2008.60,1479.72"/>
    </edge>
    <edge id=":144_0" function="internal">
        <lane id=":144_0_0" index="0" disallow="tram rail_urban rail rail_electric rail_fast ship" speed="13.89" length="6.22" shape="1967.78,1188.05 1966.01,1188.58 1964.77,1188.96 1963.66,1189.56 1962.27,1190.73"/>
    </edge>
    <edge id=":144_1" function="internal">
        <lane id=":144_1_0" index="0" disallow="tram rail_urban rail rail_electric rail_fast ship" speed="6.92" length="1.49" shape="1964.05,1185.76 1964.10,1187.15 1964.08,1187.25"/>
    </edge>
    <edge id=":144_2" function="internal">
        <lane id=":144_2_0" index="0" disallow="tram rail_urban rail rail_electric rail_fast ship" speed="6.92" length="4.00" shape="1964.08,1187.25 1963.82,1188.44 1963.21,1189.64 1962.27,1190.73"/>
    </edge>
    <edge id=":145_0" function="internal">
        <lane id=":145_0_0" index="0" disallow="tram rail_urban rail rail_electric rail_fast ship" speed="13.89" length="11.14" shape="1873.27,1369.30 1862.27,1371.06"/>
    </edge>
    <edge id=":145_1" function="internal">
        <lane id=":145_1_0" index="0" disallow="tram rail_urban rail rail_electric rail_fast ship" speed="3.65" length="1.44" shape="1873.27,1369.30 1871.96,1368.70"/>
    </edge>
    <edge id=":145_6" function="internal">
        <lane id=":145_6_0" index="0" disallow="tram rail_urban rail rail_electric rail_fast ship" speed="3.65" length="3.23" shape="1871.96,1368.70 1871.44,1367.97 1871.71,1367.12 1872.77,1366.14"/>
    </edge>
    <edge id=":145_2" function="internal">
        <lane id=":145_2_0" index="0" disallow="tram rail_urban rail rail_electric rail_fast ship" speed="6.51" length="9.00" shape="1866.36,1361.51 1867.10,1363.87 1868.42,1365.42 1870.31,1366.18 1872.77,1366.14"/>
    </edge>
    <edge id=":145_3" function="internal">
        <lane id=":145_3_0" index="0" disallow="tram rail_urban rail rail_electric rail_fast ship" speed="7.31" length="11.69" shape="1866.36,1361.51 1866.64,1365.36 1866.05,1368.23 1864.59,1370.13 1862.27,1371.06"/>
    </edge>
    <edge id=":145_4" function="internal">
        <lane id=":145_4_0" index="0" disallow="tram rail_urban rail rail_electric rail_fast ship" speed="13.89" length="11.15" shape="1861.76,1367.90 1872.77,1366.14"/>
    </edge>
    <edge id=":145_5" function="internal">
        <lane id=":145_5_0" index="0" disallow="tram rail_urban rail rail_electric rail_fast ship" speed="3.65" length="1.44" shape="1861.76,1367.90 1863.07,1368.50"/>
    </edge>
    <edge id=":145_7" function="internal">
        <lane id=":145_7_0" index="0" disallow="tram rail_urban rail rail_electric rail_fast ship" speed="3.65" length="3.23" shape="1863.07,1368.50 1863.59,1369.23 1863.32,1370.08 1862.27,1371.06"/>
    </edge>
    <edge id=":146_0" function="internal">
        <lane id=":146_0_0" index="0" disallow="tram rail_urban rail rail_electric rail_fast ship" speed="13.89" length="11.17" shape="1982.28,1351.81 1971.26,1353.58"/>
    </edge>