<?xml version='1.0' encoding='utf-8'?>
<routes>
	<vType accel="3.0" decel="6.0" id="CarDefault" length="5.0" minGap="2.5" maxSpeed="50.0" sigma="0.5" />
	<route id="sr1066" edges="488 984 985 989 990 641 959 338 292 1013 1038 449 448 447 758 759 760" fromJunction="357" toJunction="87" />
	<route id="r2982" edges="965 750 751 964 213 212 211 411 410 984 985 989 990 209 831 832" fromJunction="358" toJunction="241" />
	<route id="r2981" edges="897 332 331 428 427 426 425 769 513 890 51 535 563 507 508 515 525 526 527 9 232 333 988 209 831 832" fromJunction="315" toJunction="241" />
	<route id="sr1065" edges="965 750 751 964 741 742 430 210 12 11 341 10 9 232 333 988 209 831 832" fromJunction="358" toJunction="241" />
	<route id="r2980" edges="288 287 739 415 233 886 774 502 627 628 967 968 957 958 511 512 513 890 891 766 550 551 552 553 554 884 885 346" fromJunction="241" toJunction="315" />
	<route id="sr1067" edges="288 287 739 415 233 886 774 502 627 628 967 968 957 958 1002 1003 1004 1005 1006 1007 884 885 346" fromJunction="241" toJunction="315" />
	<vehicle id="v0" depart="0.0" route="r2982" type="CarDefault" departLane="random" />
	<vehicle id="v178" depart="0.0" route="sr1066" type="CarDefault" departLane="random" />
	<vehicle id="v351" depart="0.0" route="r2980" type="CarDefault" departLane="random" />
	<vehicle id="v539" depart="0" route="r2981" type="CarDefault" departLane="random" />
	<vehicle id="v536" depart="3" route="r2981" type="CarDefault" departLane="random" />
	<vehicle id="v541" depart="3" route="r2981" type="CarDefault" departLane="random" />
	<vehicle id="v352" depart="3.26" route="r2980" type="CarDefault" departLane="random" />
	<vehicle id="v1" depart="3.39" route="r2982" type="CarDefault" departLane="random" />
	<vehicle id="v179" depart="3.49" route="sr1066" type="CarDefault" departLane="random" />
	<vehicle id="v543" depart="5" route="r2981" type="CarDefault" departLane="random" />
	<vehicle id="v544" depart="5" route="r2981" type="CarDefault" departLane="random" />
	<vehicle id="v545" depart="6" route="r2981" type="CarDefault" departLane="random" />
	<vehicle id="v353" depart="6.52" route="r2980" type="CarDefault" departLane="random" />
	<vehicle id="v2" depart="6.78" route="r2982" type="CarDefault" departLane="random" />
	<vehicle id="v180" depart="6.98" route="sr1066" type="CarDefault" departLane="random" />
	<vehicle id="v540" depart="8" route="r2981" type="CarDefault" departLane="random" />
	<vehicle id="v354" depart="9.78" route="r2980" type="CarDefault" departLane="random" />
	<vehicle id="v3" depart="10.17" route="r2982" type="CarDefault" departLane="random" />
	<vehicle id="v181" depart="10.47" route="sr1066" type="CarDefault" departLane="random" />
	<vehicle id="v538" depart="12" route="r2981" type="CarDefault" departLane="random" />
	<vehicle id="v542" depart="12" route="r2981" type="CarDefault" departLane="random" />
	<vehicle id="v355" depart="13.04" route="r2980" type="CarDefault" departLane="random" />
	<vehicle id="v4" depart="13.56" route="r2982" type="CarDefault" departLane="random" />
	<vehicle id="v182" depart="13.95" route="sr1066" type="CarDefault" departLane="random" />
	<vehicle id="v356" depart="16.3" route="r2980" type="CarDefault" departLane="random" />
	<vehicle id="v5" depart="16.95" route="r2982" type="CarDefault" departLane="random" />
	<vehicle id="v183" depart="17.44" route="sr1066" type="CarDefault" departLane="random" />
	<vehicle id="v537" depart="19" route="r2981" type="CarDefault" departLane="random" />
	<vehicle id="v357" depart="19.57" route="r2980" type="CarDefault" departLane="random" />
	<vehicle id="v6" depart="20.34" route="r2982" type="CarDefault" departLane="random" />
	<vehicle id="v184" depart="20.93" route="sr1066" type="CarDefault" departLane="random" />
	<vehicle id="v554" depart="22" route="r2981" type="CarDefault" departLane="random" />
	<vehicle id="v358" depart="22.83" route="r2980" type="CarDefault" departLane="random" />
	<vehicle id="v7" depart="23.73" route="r2982" type="CarDefault" departLane="random" />
	<vehicle id="v185" depart="24.42" route="sr1066" type="CarDefault" departLane="random" />
	<vehicle id="v359" depart="26.09" route="r2980" type="CarDefault" departLane="random" />
	<vehicle id="v8" depart="27.12" route="r2982" type="CarDefault" departLane="random" />
	<vehicle id="v186" depart="27.91" route="sr1066" type="CarDefault" departLane="random" />
	<vehicle id="v548" depart="28" route="r2981" type="CarDefault" departLane="random" />
	<vehicle id="v551" depart="28" route="r2981" type="CarDefault" departLane="random" />
	<vehicle id="v552" depart="28" route="r2981" type="CarDefault" departLane="random" />
	<vehicle id="v360" depart="29.35" route="r2980" type="CarDefault" departLane="random" />
	<vehicle id="v9" depart="30.51" route="r2982" type="CarDefault" departLane="random" />
	<vehicle id="v555" depart="31" route="r2981" type="CarDefault" departLane="random" />
	<vehicle id="v187" depart="31.4" route="sr1066" type="CarDefault" departLane="random" />
	<vehicle id="v546" depart="32" route="r2981" type="CarDefault" departLane="random" />
	<vehicle id="v361" depart="32.61" route="r2980" type="CarDefault" departLane="random" />
	<vehicle id="v549" depart="33" route="r2981" type="CarDefault" departLane="random" />
	<vehicle id="v10" depart="33.9" route="r2982" type="CarDefault" departLane="random" />
	<vehicle id="v188" depart="34.88" route="sr1066" type="CarDefault" departLane="random" />
	<vehicle id="v362" depart="35.87" route="r2980" type="CarDefault" departLane="random" />
	<vehicle id="v550" depart="37" route="r2981" type="CarDefault" departLane="random" />
	<vehicle id="v553" depart="37" route="r2981" type="CarDefault" departLane="random" />
	<vehicle id="v11" depart="37.29" route="r2982" type="CarDefault" departLane="random" />
	<vehicle id="v547" depart="38" route="r2981" type="CarDefault" departLane="random" />
	<vehicle id="v189" depart="38.37" route="sr1066" type="CarDefault" departLane="random" />
	<vehicle id="v363" depart="39.13" route="r2980" type="CarDefault" departLane="random" />
	<vehicle id="v12" depart="40.68" route="r2982" type="CarDefault" departLane="random" />
	<vehicle id="v556" depart="41" route="r2981" type="CarDefault" departLane="random" />
	<vehicle id="v190" depart="41.86" route="sr1066" type="CarDefault" departLane="random" />
	<vehicle id="v364" depart="42.39" route="r2980" type="CarDefault" departLane="random" />
	<vehicle id="v13" depart="44.07" route="r2982" type="CarDefault" departLane="random" />
	<vehicle id="v563" depart="45" route="r2981" type="CarDefault" departLane="random" />
	<vehicle id="v191" depart="45.35" route="sr1066" type="CarDefault" departLane="random" />
	<vehicle id="v365" depart="45.65" route="r2980" type="CarDefault" departLane="random" />
	<vehicle id="v558" depart="46" route="r2981" type="CarDefault" departLane="random" />
	<vehicle id="v559" depart="47" route="r2981" type="CarDefault" departLane="random" />
	<vehicle id="v14" depart="47.46" route="r2982" type="CarDefault" departLane="random" />
	<vehicle id="v192" depart="48.84" route="sr1066" type="CarDefault" departLane="random" />
	<vehicle id="v366" depart="48.91" route="r2980" type="CarDefault" departLane="random" />
	<vehicle id="v560" depart="49" route="r2981" type="CarDefault" departLane="random" />
	<vehicle id="v557" depart="50" route="r2981" type="CarDefault" departLane="random" />
	<vehicle id="v15" depart="50.85" route="r2982" type="CarDefault" departLane="random" />
	<vehicle id="v562" depart="51" route="r2981" type="CarDefault" departLane="random" />
	<vehicle id="v561" depart="52" route="r2981" type="CarDefault" departLane="random" />
	<vehicle id="v367" depart="52.17" route="r2980" type="CarDefault" departLane="random" />
	<vehicle id="v193" depart="52.33" route="sr1066" type="CarDefault" departLane="random" />
	<vehicle id="v16" depart="54.24" route="r2982" type="CarDefault" departLane="random" />
	<vehicle id="v368" depart="55.43" route="r2980" type="CarDefault" departLane="random" />
	<vehicle id="v194" depart="55.81" route="sr1066" type="CarDefault" departLane="random" />
	<vehicle id="v17" depart="57.63" route="r2982" type="CarDefault" departLane="random" />
	<vehicle id="v564" depart="58" route="r2981" type="CarDefault" departLane="random" />
	<vehicle id="v369" depart="58.7" route="r2980" type="CarDefault" departLane="random" />
	<vehicle id="v195" depart="59.3" route="sr1066" type="CarDefault" departLane="random" />
	<vehicle id="v18" depart="61.02" route="r2982" type="CarDefault" departLane="random" />
	<vehicle id="v370" depart="61.96" route="r2980" type="CarDefault" departLane="random" />
	<vehicle id="v196" depart="62.79" route="sr1066" type="CarDefault" departLane="random" />
	<vehicle id="v19" depart="64.41" route="r2982" type="CarDefault" departLane="random" />
	<vehicle id="v371" depart="65.22" route="r2980" type="CarDefault" departLane="random" />
	<vehicle id="v197" depart="66.28" route="sr1066" type="CarDefault" departLane="random" />
	<vehicle id="v571" depart="67" route="r2981" type="CarDefault" departLane="random" />
	<vehicle id="v20" depart="67.8" route="r2982" type="CarDefault" departLane="random" />
	<vehicle id="v372" depart="68.48" route="r2980" type="CarDefault" departLane="random" />
	<vehicle id="v566" depart="69" route="r2981" type="CarDefault" departLane="random" />
	<vehicle id="v198" depart="69.77" route="sr1066" type="CarDefault" departLane="random" />
	<vehicle id="v21" depart="71.19" route="r2982" type="CarDefault" departLane="random" />
	<vehicle id="v373" depart="71.74" route="r2980" type="CarDefault" departLane="random" />
	<vehicle id="v570" depart="72" route="r2981" type="CarDefault" departLane="random" />
	<vehicle id="v572" depart="72" route="r2981" type="CarDefault" departLane="random" />
	<vehicle id="v199" depart="73.26" route="sr1066" type="CarDefault" departLane="random" />
	<vehicle id="v22" depart="74.58" route="r2982" type="CarDefault" departLane="random" />
	<vehicle id="v374" depart="75.0" route="r2980" type="CarDefault" departLane="random" />
	<vehicle id="v565" depart="75" route="r2981" type="CarDefault" departLane="random" />
	<vehicle id="v568" depart="75" route="r2981" type="CarDefault" departLane="random" />
	<vehicle id="v567" depart="76" route="r2981" type="CarDefault" departLane="random" />
	<vehicle id="v200" depart="76.74" route="sr1066" type="CarDefault" departLane="random" />
	<vehicle id="v569" depart="77" route="r2981" type="CarDefault" departLane="random" />
	<vehicle id="v23" depart="77.97" route="r2982" type="CarDefault" departLane="random" />
	<vehicle id="v375" depart="78.26" route="r2980" type="CarDefault" departLane="random" />
	<vehicle id="v573" depart="79" route="r2981" type="CarDefault" departLane="random" />
	<vehicle id="v201" depart="80.23" route="sr1066" type="CarDefault" departLane="random" />
	<vehicle id="v580" depart="81" route="r2981" type="CarDefault" departLane="random" />
	<vehicle id="v24" depart="81.36" route="r2982" type="CarDefault" departLane="random" />
	<vehicle id="v376" depart="81.52" route="r2980" type="CarDefault" departLane="random" />
	<vehicle id="v575" depart="83" route="r2981" type="CarDefault" departLane="random" />
	<vehicle id="v202" depart="83.72" route="sr1066" type="CarDefault" departLane="random" />
	<vehicle id="v577" depart="84" route="r2981" type="CarDefault" departLane="random" />
	<vehicle id="v25" depart="84.75" route="r2982" type="CarDefault" departLane="random" />
	<vehicle id="v377" depart="84.78" route="r2980" type="CarDefault" departLane="random" />
	<vehicle id="v574" depart="86" route="r2981" type="CarDefault" departLane="random" />
	<vehicle id="v203" depart="87.21" route="sr1066" type="CarDefault" departLane="random" />
	<vehicle id="v578" depart="88" route="r2981" type="CarDefault" departLane="random" />
	<vehicle id="v378" depart="88.04" route="r2980" type="CarDefault" departLane="random" />
	<vehicle id="v26" depart="88.14" route="r2982" type="CarDefault" departLane="random" />
	<vehicle id="v204" depart="90.7" route="sr1066" type="CarDefault" departLane="random" />
	<vehicle id="v579" depart="91" route="r2981" type="CarDefault" departLane="random" />
	<vehicle id="v379" depart="91.3" route="r2980" type="CarDefault" departLane="random" />
	<vehicle id="v27" depart="91.53" route="r2982" type="CarDefault" departLane="random" />
	<vehicle id="v582" depart="93" route="r2981" type="CarDefault" departLane="random" />
	<vehicle id="v205" depart="94.19" route="sr1066" type="CarDefault" departLane="random" />
	<vehicle id="v380" depart="94.57" route="r2980" type="CarDefault" departLane="random" />
	<vehicle id="v28" depart="94.92" route="r2982" type="CarDefault" departLane="random" />
	<vehicle id="v576" depart="97" route="r2981" type="CarDefault" departLane="random" />
	<vehicle id="v581" depart="97" route="r2981" type="CarDefault" departLane="random" />
	<vehicle id="v206" depart="97.67" route="sr1066" type="CarDefault" departLane="random" />
	<vehicle id="v381" depart="97.83" route="r2980" type="CarDefault" departLane="random" />
	<vehicle id="v29" depart="98.31" route="r2982" type="CarDefault" departLane="random" />
	<vehicle id="v382" depart="101.09" route="r2980" type="CarDefault" departLane="random" />
	<vehicle id="v207" depart="101.16" route="sr1066" type="CarDefault" departLane="random" />
	<vehicle id="v30" depart="101.69" route="r2982" type="CarDefault" departLane="random" />
	<vehicle id="v591" depart="103" route="r2981" type="CarDefault" departLane="random" />
	<vehicle id="v383" depart="104.35" route="r2980" type="CarDefault" departLane="random" />
	<vehicle id="v208" depart="104.65" route="sr1066" type="CarDefault" departLane="random" />
	<vehicle id="v587" depart="105" route="r2981" type="CarDefault" departLane="random" />
	<vehicle id="v31" depart="105.08" route="r2982" type="CarDefault" departLane="random" />
	<vehicle id="v589" depart="106" route="r2981" type="CarDefault" departLane="random" />
	<vehicle id="v384" depart="107.61" route="r2980" type="CarDefault" departLane="random" />
	<vehicle id="v586" depart="108" route="r2981" type="CarDefault" departLane="random" />
	<vehicle id="v588" depart="108" route="r2981" type="CarDefault" departLane="random" />
	<vehicle id="v209" depart="108.14" route="sr1066" type="CarDefault" departLane="random" />
	<vehicle id="v32" depart="108.47" route="r2982" type="CarDefault" departLane="random" />
	<vehicle id="v385" depart="110.87" route="r2980" type="CarDefault" departLane="random" />
	<vehicle id="v584" depart="111" route="r2981" type="CarDefault" departLane="random" />
	<vehicle id="v210" depart="111.63" route="sr1066" type="CarDefault" departLane="random" />
	<vehicle id="v33" depart="111.86" route="r2982" type="CarDefault" departLane="random" />
	<vehicle id="v583" depart="113" route="r2981" type="CarDefault" departLane="random" />
	<vehicle id="v386" depart="114.13" route="r2980" type="CarDefault" departLane="random" />
	<vehicle id="v211" depart="115.12" route="sr1066" type="CarDefault" departLane="random" />
	<vehicle id="v34" depart="115.25" route="r2982" type="CarDefault" departLane="random" />
	<vehicle id="v585" depart="117" route="r2981" type="CarDefault" departLane="random" />
	<vehicle id="v387" depart="117.39" route="r2980" type="CarDefault" departLane="random" />
	<vehicle id="v212" depart="118.6" route="sr1066" type="CarDefault" departLane="random" />
	<vehicle id="v35" depart="118.64" route="r2982" type="CarDefault" departLane="random" />
	<vehicle id="v590" depart="119" route="r2981" type="CarDefault" departLane="random" />
	<vehicle id="v388" depart="120.65" route="r2980" type="CarDefault" departLane="random" />
	<vehicle id="v36" depart="122.03" route="r2982" type="CarDefault" departLane="random" />
	<vehicle id="v213" depart="122.09" route="sr1066" type="CarDefault" departLane="random" />
	<vehicle id="v598" depart="123" route="r2981" type="CarDefault" departLane="random" />
	<vehicle id="v389" depart="123.91" route="r2980" type="CarDefault" departLane="random" />
	<vehicle id="v37" depart="125.42" route="r2982" type="CarDefault" departLane="random" />
	<vehicle id="v214" depart="125.58" route="sr1066" type="CarDefault" departLane="random" />
	<vehicle id="v600" depart="127" route="r2981" type="CarDefault" departLane="random" />
	<vehicle id="v390" depart="127.17" route="r2980" type="CarDefault" departLane="random" />
	<vehicle id="v38" depart="128.81" route="r2982" type="CarDefault" departLane="random" />
	<vehicle id="v215" depart="129.07" route="sr1066" type="CarDefault" departLane="random" />
	<vehicle id="v595" depart="130" route="r2981" type="CarDefault" departLane="random" />
	<vehicle id="v391" depart="130.43" route="r2980" type="CarDefault" departLane="random" />
	<vehicle id="v596" depart="131" route="r2981" type="CarDefault" departLane="random" />
	<vehicle id="v39" depart="132.2" route="r2982" type="CarDefault" departLane="random" />
	<vehicle id="v216" depart="132.56" route="sr1066" type="CarDefault" departLane="random" />
	<vehicle id="v392" depart="133.7" route="r2980" type="CarDefault" departLane="random" />
	<vehicle id="v593" depart="134" route="r2981" type="CarDefault" departLane="random" />
	<vehicle id="v597" depart="134" route="r2981" type="CarDefault" departLane="random" />
	<vehicle id="v599" depart="135" route="r2981" type="CarDefault" departLane="random" />
	<vehicle id="v40" depart="135.59" route="r2982" type="CarDefault" departLane="random" />
	<vehicle id="v592" depart="136" route="r2981" type="CarDefault" departLane="random" />
	<vehicle id="v217" depart="136.05" route="sr1066" type="CarDefault" departLane="random" />
	<vehicle id="v393" depart="136.96" route="r2980" type="CarDefault" departLane="random" />
	<vehicle id="v594" depart="137" route="r2981" type="CarDefault" departLane="random" />
	<vehicle id="v41" depart="138.98" route="r2982" type="CarDefault" departLane="random" />
	<vehicle id="v218" depart="139.53" route="sr1066" type="CarDefault" departLane="random" />
	<vehicle id="v394" depart="140.22" route="r2980" type="CarDefault" departLane="random" />
	<vehicle id="v603" depart="142" route="r2981" type="CarDefault" departLane="random" />
	<vehicle id="v604" depart="142" route="r2981" type="CarDefault" departLane="random" />
	<vehicle id="v42" depart="142.37" route="r2982" type="CarDefault" departLane="random" />
	<vehicle id="v219" depart="143.02" route="sr1066" type="CarDefault" departLane="random" />
	<vehicle id="v395" depart="143.48" route="r2980" type="CarDefault" departLane="random" />
	<vehicle id="v608" depart="144" route="r2981" type="CarDefault" departLane="random" />
	<vehicle id="v43" depart="145.76" route="r2982" type="CarDefault" departLane="random" />
	<vehicle id="v220" depart="146.51" route="sr1066" type="CarDefault" departLane="random" />
	<vehicle id="v396" depart="146.74" route="r2980" type="CarDefault" departLane="random" />
	<vehicle id="v607" depart="147" route="r2981" type="CarDefault" departLane="random" />
	<vehicle id="v44" depart="149.15" route="r2982" type="CarDefault" departLane="random" />
	<vehicle id="v221" depart="150.0" route="sr1066" type="CarDefault" departLane="random" />
	<vehicle id="v397" depart="150.0" route="r2980" type="CarDefault" departLane="random" />
	<vehicle id="v606" depart="151" route="r2981" type="CarDefault" departLane="random" />
	<vehicle id="v45" depart="152.54" route="r2982" type="CarDefault" departLane="random" />
	<vehicle id="v609" depart="153" route="r2981" type="CarDefault" departLane="random" />
	<vehicle id="v398" depart="153.26" route="r2980" type="CarDefault" departLane="random" />
	<vehicle id="v222" depart="153.49" route="sr1066" type="CarDefault" departLane="random" />
	<vehicle id="v46" depart="155.93" route="r2982" type="CarDefault" departLane="random" />
	<vehicle id="v399" depart="156.52" route="r2980" type="CarDefault" departLane="random" />
	<vehicle id="v223" depart="156.98" route="sr1066" type="CarDefault" departLane="random" />
	<vehicle id="v601" depart="157" route="r2981" type="CarDefault" departLane="random" />
	<vehicle id="v605" depart="157" route="r2981" type="CarDefault" departLane="random" />
	<vehicle id="v602" depart="158" route="r2981" type="CarDefault" departLane="random" />
	<vehicle id="v47" depart="159.32" route="r2982" type="CarDefault" departLane="random" />
	<vehicle id="v400" depart="159.78" route="r2980" type="CarDefault" departLane="random" />
	<vehicle id="v224" depart="160.47" route="sr1066" type="CarDefault" departLane="random" />
	<vehicle id="v613" depart="161" route="r2981" type="CarDefault" departLane="random" />
	<vehicle id="v617" depart="161" route="r2981" type="CarDefault" departLane="random" />
	<vehicle id="v48" depart="162.71" route="r2982" type="CarDefault" departLane="random" />
	<vehicle id="v610" depart="163" route="r2981" type="CarDefault" departLane="random" />
	<vehicle id="v401" depart="163.04" route="r2980" type="CarDefault" departLane="random" />
	<vehicle id="v225" depart="163.95" route="sr1066" type="CarDefault" departLane="random" />
	<vehicle id="v616" depart="165" route="r2981" type="CarDefault" departLane="random" />
	<vehicle id="v49" depart="166.1" route="r2982" type="CarDefault" departLane="random" />
	<vehicle id="v402" depart="166.3" route="r2980" type="CarDefault" departLane="random" />
	<vehicle id="v226" depart="167.44" route="sr1066" type="CarDefault" departLane="random" />
	<vehicle id="v611" depart="169" route="r2981" type="CarDefault" departLane="random" />
	<vehicle id="v50" depart="169.49" route="r2982" type="CarDefault" departLane="random" />
	<vehicle id="v403" depart="169.57" route="r2980" type="CarDefault" departLane="random" />
	<vehicle id="v227" depart="170.93" route="sr1066" type="CarDefault" departLane="random" />
	<vehicle id="v614" depart="172" route="r2981" type="CarDefault" departLane="random" />
	<vehicle id="v404" depart="172.83" route="r2980" type="CarDefault" departLane="random" />
	<vehicle id="v51" depart="172.88" route="r2982" type="CarDefault" departLane="random" />
	<vehicle id="v612" depart="174" route="r2981" type="CarDefault" departLane="random" />
	<vehicle id="v228" depart="174.42" route="sr1066" type="CarDefault" departLane="random" />
	<vehicle id="v619" depart="176" route="r2981" type="CarDefault" departLane="random" />
	<vehicle id="v405" depart="176.09" route="r2980" type="CarDefault" departLane="random" />
	<vehicle id="v52" depart="176.27" route="r2982" type="CarDefault" departLane="random" />
	<vehicle id="v618" depart="177" route="r2981" type="CarDefault" departLane="random" />
	<vehicle id="v229" depart="177.91" route="sr1066" type="CarDefault" departLane="random" />
	<vehicle id="v615" depart="179" route="r2981" type="CarDefault" departLane="random" />
	<vehicle id="v406" depart="179.35" route="r2980" type="CarDefault" departLane="random" />
	<vehicle id="v53" depart="179.66" route="r2982" type="CarDefault" departLane="random" />
	<vehicle id="v620" depart="181" route="r2981" type="CarDefault" departLane="random" />
	<vehicle id="v623" depart="181" route="r2981" type="CarDefault" departLane="random" />
	<vehicle id="v230" depart="181.4" route="sr1066" type="CarDefault" departLane="random" />
	<vehicle id="v407" depart="182.61" route="r2980" type="CarDefault" departLane="random" />
	<vehicle id="v625" depart="183" route="r2981" type="CarDefault" departLane="random" />
	<vehicle id="v54" depart="183.05" route="r2982" type="CarDefault" departLane="random" />
	<vehicle id="v231" depart="184.88" route="sr1066" type="CarDefault" departLane="random" />
	<vehicle id="v408" depart="185.87" route="r2980" type="CarDefault" departLane="random" />
	<vehicle id="v628" depart="186" route="r2981" type="CarDefault" departLane="random" />
	<vehicle id="v55" depart="186.44" route="r2982" type="CarDefault" departLane="random" />
	<vehicle id="v626" depart="187" route="r2981" type="CarDefault" departLane="random" />
	<vehicle id="v621" depart="188" route="r2981" type="CarDefault" departLane="random" />
	<vehicle id="v232" depart="188.37" route="sr1066" type="CarDefault" departLane="random" />
	<vehicle id="v409" depart="189.13" route="r2980" type="CarDefault" departLane="random" />
	<vehicle id="v56" depart="189.83" route="r2982" type="CarDefault" departLane="random" />
	<vehicle id="v233" depart="191.86" route="sr1066" type="CarDefault" departLane="random" />
	<vehicle id="v410" depart="192.39" route="r2980" type="CarDefault" departLane="random" />
	<vehicle id="v629" depart="193" route="r2981" type="CarDefault" departLane="random" />
	<vehicle id="v57" depart="193.22" route="r2982" type="CarDefault" departLane="random" />
	<vehicle id="v622" depart="195" route="r2981" type="CarDefault" departLane="random" />
	<vehicle id="v624" depart="195" route="r2981" type="CarDefault" departLane="random" />
	<vehicle id="v627" depart="195" route="r2981" type="CarDefault" departLane="random" />
	<vehicle id="v234" depart="195.35" route="sr1066" type="CarDefault" departLane="random" />
	<vehicle id="v411" depart="195.65" route="r2980" type="CarDefault" departLane="random" />
	<vehicle id="v58" depart="196.61" route="r2982" type="CarDefault" departLane="random" />
	<vehicle id="v235" depart="198.84" route="sr1066" type="CarDefault" departLane="random" />
	<vehicle id="v412" depart="198.91" route="r2980" type="CarDefault" departLane="random" />
	<vehicle id="v59" depart="200.0" route="r2982" type="CarDefault" departLane="random" />
	<vehicle id="v413" depart="202.17" route="r2980" type="CarDefault" departLane="random" />
	<vehicle id="v236" depart="202.33" route="sr1066" type="CarDefault" departLane="random" />
	<vehicle id="v60" depart="203.39" route="r2982" type="CarDefault" departLane="random" />
	<vehicle id="v638" depart="205" route="r2981" type="CarDefault" departLane="random" />
	<vehicle id="v414" depart="205.43" route="r2980" type="CarDefault" departLane="random" />
	<vehicle id="v237" depart="205.81" route="sr1066" type="CarDefault" departLane="random" />
	<vehicle id="v61" depart="206.78" route="r2982" type="CarDefault" departLane="random" />
	<vehicle id="v630" depart="207" route="r2981" type="CarDefault" departLane="random" />
	<vehicle id="v635" depart="207" route="r2981" type="CarDefault" departLane="random" />
	<vehicle id="v415" depart="208.7" route="r2980" type="CarDefault" departLane="random" />
	<vehicle id="v633" depart="209" route="r2981" type="CarDefault" departLane="random" />
	<vehicle id="v238" depart="209.3" route="sr1066" type="CarDefault" departLane="random" />
	<vehicle id="v632" depart="210" route="r2981" type="CarDefault" departLane="random" />
	<vehicle id="v62" depart="210.17" route="r2982" type="CarDefault" departLane="random" />
	<vehicle id="v416" depart="211.96" route="r2980" type="CarDefault" departLane="random" />
	<vehicle id="v631" depart="212" route="r2981" type="CarDefault" departLane="random" />
	<vehicle id="v634" depart="212" route="r2981" type="CarDefault" departLane="random" />
	<vehicle id="v636" depart="212" route="r2981" type="CarDefault" departLane="random" />
	<vehicle id="v239" depart="212.79" route="sr1066" type="CarDefault" departLane="random" />
	<vehicle id="v63" depart="213.56" route="r2982" type="CarDefault" departLane="random" />
	<vehicle id="v637" depart="214" route="r2981" type="CarDefault" departLane="random" />
	<vehicle id="v417" depart="215.22" route="r2980" type="CarDefault" departLane="random" />
	<vehicle id="v240" depart="216.28" route="sr1066" type="CarDefault" departLane="random" />
	<vehicle id="v64" depart="216.95" route="r2982" type="CarDefault" departLane="random" />
	<vehicle id="v639" depart="218" route="r2981" type="CarDefault" departLane="random" />
	<vehicle id="v418" depart="218.48" route="r2980" type="CarDefault" departLane="random" />
	<vehicle id="v241" depart="219.77" route="sr1066" type="CarDefault" departLane="random" />
	<vehicle id="v642" depart="220" route="r2981" type="CarDefault" departLane="random" />
	<vehicle id="v65" depart="220.34" route="r2982" type="CarDefault" departLane="random" />
	<vehicle id="v419" depart="221.74" route="r2980" type="CarDefault" departLane="random" />
	<vehicle id="v242" depart="223.26" route="sr1066" type="CarDefault" departLane="random" />
	<vehicle id="v66" depart="223.73" route="r2982" type="CarDefault" departLane="random" />
	<vehicle id="v644" depart="224" route="r2981" type="CarDefault" departLane="random" />
	<vehicle id="v646" depart="224" route="r2981" type="CarDefault" departLane="random" />
	<vehicle id="v420" depart="225.0" route="r2980" type="CarDefault" departLane="random" />
	<vehicle id="v243" depart="226.74" route="sr1066" type="CarDefault" departLane="random" />
	<vehicle id="v67" depart="227.12" route="r2982" type="CarDefault" departLane="random" />
	<vehicle id="v645" depart="228" route="r2981" type="CarDefault" departLane="random" />
	<vehicle id="v421" depart="228.26" route="r2980" type="CarDefault" departLane="random" />
	<vehicle id="v647" depart="229" route="r2981" type="CarDefault" departLane="random" />
	<vehicle id="v244" depart="230.23" route="sr1066" type="CarDefault" departLane="random" />
	<vehicle id="v68" depart="230.51" route="r2982" type="CarDefault" departLane="random" />
	<vehicle id="v422" depart="231.52" route="r2980" type="CarDefault" departLane="random" />
	<vehicle id="v641" depart="233" route="r2981" type="CarDefault" departLane="random" />
	<vehicle id="v245" depart="233.72" route="sr1066" type="CarDefault" departLane="random" />
	<vehicle id="v69" depart="233.9" route="r2982" type="CarDefault" departLane="random" />
	<vehicle id="v640" depart="234" route="r2981" type="CarDefault" departLane="random" />
	<vehicle id="v643" depart="234" route="r2981" type="CarDefault" departLane="random" />
	<vehicle id="v423" depart="234.78" route="r2980" type="CarDefault" departLane="random" />