<?xml version='1.0' encoding='utf-8'?>
<net xmlns:xsi="http://www.w3.org/2001/XMLSchema-instance" version="1.9" junctionCornerDetail="5" limitTurnSpeed="5.50" xsi:noNamespaceSchemaLocation="http://sumo.dlr.de/xsd/net_file.xsd">
	<location netOffset="-336586.08,3754670.31" convBoundary="0.00,12.34,2397.89,2196.77" origBoundary="151.232525,-33.920080,151.266296,-33.899237" projParameter="+proj=utm +zone=56 +ellps=WGS84 +datum=WGS84 +units=m +no_defs" />
	<subgraphs>
		<subgraph id="average_dissimilarity_0" from_junction="77" to_junction="357" edges="629,19,830,394,536,62,174,740,752,828,44,631,340,159,639,764,8,84,503,508,903,520,840,1059,906,161,166,510,468,175,770,747,228,584,861,20,908,469,952,954,829,339,983,827,892,926,893,583,506,640,682,507,909,635,658,630,916,634,559,907,211,637,673,157,405,887,307,738,767,826,29,477,294,839,229,509,1057,749,638,636,674,410,165,862,633,615,212,21,164,996,748,295,411,22,306,765,504" />
		<subgraph id="average_dissimilarity_1" from_junction="315" to_junction="241" edges="430,342,232,616,19,283,710,472,123,988,828,513,512,938,403,340,941,9,210,742,425,594,874,407,875,404,831,285,10,341,611,770,485,209,812,197,771,809,20,332,772,535,829,897,339,810,827,289,832,926,381,708,796,333,511,942,587,124,12,426,709,427,866,969,400,284,428,6,887,52,367,811,424,826,54,380,600,471,931,399,406,334,331,483,286,615,890,53,21,940,51,599,795,896,501,504,805,558,11,423" />
		<subgraph id="average_dissimilarity_2" from_junction="388" to_junction="87" edges="726,629,442,180,759,446,675,631,438,134,1023,684,1012,357,230,643,312,619,133,135,864,906,248,201,278,310,468,806,722,808,440,200,797,981,758,908,696,977,469,136,439,1024,719,179,1026,648,642,645,347,557,635,909,630,1027,717,634,265,559,907,214,656,203,865,356,307,863,997,721,202,716,294,807,724,853,749,787,636,192,1058,760,633,707,249,723,441,854,718,748,295,647,978,306,264,644,788" />
		<subgraph id="average_dissimilarity_3" from_junction="316" to_junction="241" edges="430,19,283,710,563,889,513,505,403,340,595,538,831,525,267,500,591,378,485,197,311,384,20,47,524,985,829,339,947,55,289,926,832,523,827,796,333,507,279,989,1003,587,750,56,124,12,1010,837,376,569,211,934,428,6,751,811,826,29,54,380,935,87,399,484,406,334,990,984,286,498,527,212,53,940,107,795,501,929,709,526,423,616,342,232,123,988,740,828,941,213,9,65,290,210,742,425,714,923,377,117,874,407,875,404,932,285,10,341,770,209,812,946,944,809,535,964,943,810,592,930,708,916,945,942,116,426,113,427,400,1002,969,284,741,887,52,1007,367,424,280,769,471,928,483,373,499,915,410,615,890,21,924,933,262,51,411,22,504,366,11,46" />
	</subgraphs>
	<type id="highway.bridleway" priority="1" numLanes="1" speed="2.78" allow="pedestrian" oneway="1" width="2.00" />
	<type id="highway.bus_guideway" priority="1" numLanes="1" speed="27.78" allow="bus" oneway="1" />
	<type id="highway.cycleway" priority="1" numLanes="1" speed="8.33" allow="bicycle" oneway="0" width="1.00" />
	<type id="highway.footway" priority="1" numLanes="1" speed="2.78" allow="pedestrian" oneway="1" width="2.00" />
	<type id="highway.ford" priority="1" numLanes="1" speed="2.78" allow="army" oneway="0" />
	<type id="highway.living_street" priority="2" numLanes="1" speed="2.78" disallow="tram rail_urban rail rail_electric rail_fast ship" oneway="0" />
	<type id="highway.motorway" priority="14" numLanes="2" speed="39.44" allow="private emergency authority army vip passenger hov taxi bus coach delivery truck trailer motorcycle evehicle custom1 custom2" oneway="1" />
	<type id="highway.motorway_link" priority="9" numLanes="1" speed="22.22" allow="private emergency authority army vip passenger hov taxi bus coach delivery truck trailer motorcycle evehicle custom1 custom2" oneway="1" />
	<type id="highway.path" priority="1" numLanes="1" speed="2.78" allow="pedestrian bicycle" oneway="0" width="2.00" />
	<type id="highway.pedestrian" priority="1" numLanes="1" speed="2.78" allow="pedestrian" oneway="1" width="2.00" />
	<type id="highway.primary" priority="12" numLanes="2" speed="27.78" disallow="tram rail_urban rail rail_electric rail_fast ship" oneway="0" />
	<type id="highway.primary_link" priority="7" numLanes="1" speed="22.22" disallow="tram rail_urban rail rail_electric rail_fast ship" oneway="0" />
	<type id="highway.raceway" priority="15" numLanes="2" speed="83.33" allow="vip" oneway="0" />
	<type id="highway.residential" priority="3" numLanes="1" speed="13.89" disallow="tram rail_urban rail rail_electric rail_fast ship" oneway="0" />
	<type id="highway.secondary" priority="11" numLanes="1" speed="27.78" disallow="tram rail_urban rail rail_electric rail_fast ship" oneway="0" />
	<type id="highway.secondary_link" priority="6" numLanes="1" speed="22.22" disallow="tram rail_urban rail rail_electric rail_fast ship" oneway="0" />
	<type id="highway.service" priority="1" numLanes="1" speed="5.56" allow="pedestrian delivery bicycle" oneway="0" />
	<type id="highway.stairs" priority="1" numLanes="1" speed="1.39" allow="pedestrian" oneway="1" width="2.00" />
	<type id="highway.step" priority="1" numLanes="1" speed="1.39" allow="pedestrian" oneway="1" width="2.00" />
	<type id="highway.steps" priority="1" numLanes="1" speed="1.39" allow="pedestrian" oneway="1" width="2.00" />
	<type id="highway.tertiary" priority="10" numLanes="1" speed="22.22" disallow="tram rail_urban rail rail_electric rail_fast ship" oneway="0" />
	<type id="highway.tertiary_link" priority="5" numLanes="1" speed="22.22" disallow="tram rail_urban rail rail_electric rail_fast ship" oneway="0" />
	<type id="highway.track" priority="1" numLanes="1" speed="5.56" allow="pedestrian motorcycle moped bicycle" oneway="0" />
	<type id="highway.trunk" priority="13" numLanes="2" speed="27.78" disallow="pedestrian bicycle tram rail_urban rail rail_electric rail_fast ship" oneway="0" />
	<type id="highway.trunk_link" priority="8" numLanes="1" speed="22.22" disallow="pedestrian bicycle tram rail_urban rail rail_electric rail_fast ship" oneway="0" />
	<type id="highway.unclassified" priority="4" numLanes="1" speed="13.89" disallow="tram rail_urban rail rail_electric rail_fast ship" oneway="0" />
	<type id="highway.unsurfaced" priority="1" numLanes="1" speed="8.33" disallow="tram rail_urban rail rail_electric rail_fast ship" oneway="0" />
	<type id="railway.highspeed" priority="21" numLanes="1" speed="69.44" allow="rail_fast" oneway="1" />
	<type id="railway.light_rail" priority="19" numLanes="1" speed="27.78" allow="rail_urban" oneway="1" />
	<type id="railway.preserved" priority="16" numLanes="1" speed="27.78" allow="rail" oneway="1" />
	<type id="railway.rail" priority="20" numLanes="1" speed="44.44" allow="rail" oneway="1" />
	<type id="railway.subway" priority="18" numLanes="1" speed="27.78" allow="rail_urban" oneway="1" />
	<type id="railway.tram" priority="17" numLanes="1" speed="13.89" allow="tram" oneway="1" />
	<edge id=":101_0" function="internal">
		<lane id=":101_0_0" index="0" disallow="tram rail_urban rail rail_electric rail_fast ship" speed="22.22" length="11.22" shape="1708.45,592.73 1697.37,594.49" />
	</edge>
	<edge id=":101_1" function="internal">
		<lane id=":101_1_0" index="0" disallow="tram rail_urban rail rail_electric rail_fast ship" speed="7.33" length="7.47" shape="1708.45,592.73 1705.95,592.58 1703.96,591.23 1702.68,589.01" />
	</edge>
	<edge id=":101_4" function="internal">
		<lane id=":101_4_0" index="0" disallow="tram rail_urban rail rail_electric rail_fast ship" speed="7.33" length="4.26" shape="1702.68,589.01 1702.48,588.68 1701.52,584.93" />
	</edge>
	<edge id=":101_2" function="internal">
		<lane id=":101_2_0" index="0" disallow="tram rail_urban rail rail_electric rail_fast ship" speed="6.50" length="9.03" shape="1696.88,591.33 1699.24,590.60 1700.80,589.29 1701.56,587.40 1701.52,584.93" />
	</edge>
	<edge id=":101_3" function="internal">
		<lane id=":101_3_0" index="0" disallow="tram rail_urban rail rail_electric rail_fast ship" speed="3.65" length="1.44" shape="1696.88,591.33 1698.19,591.94" />
	</edge>
	<edge id=":101_5" function="internal">
		<lane id=":101_5_0" index="0" disallow="tram rail_urban rail rail_electric rail_fast ship" speed="3.65" length="3.23" shape="1698.19,591.94 1698.70,592.66 1698.43,593.52 1697.37,594.49" />
	</edge>
	<edge id=":103_0" function="internal">
		<lane id=":103_0_0" index="0" disallow="tram rail_urban rail rail_electric rail_fast ship" speed="3.91" length="2.53" shape="2204.42,247.48 2203.76,247.68 2203.32,248.05 2203.10,248.58 2203.09,249.27" />
	</edge>
	<edge id=":104_0" function="internal">
		<lane id=":104_0_0" index="0" disallow="tram rail_urban rail rail_electric rail_fast ship" speed="13.89" length="11.20" shape="1533.88,388.58 1532.09,377.52" />
	</edge>
	<edge id=":104_1" function="internal">
		<lane id=":104_1_0" index="0" disallow="tram rail_urban rail rail_electric rail_fast ship" speed="6.50" length="9.03" shape="1527.44,383.92 1529.81,383.20 1531.38,381.89 1532.14,380.00 1532.09,377.52" />
	</edge>
	<edge id=":107_0" function="internal">
		<lane id=":107_0_0" index="0" disallow="tram rail_urban rail rail_electric rail_fast ship" speed="13.89" length="0.30" shape="948.66,199.83 948.37,199.89" />
	</edge>
	<edge id=":108_0" function="internal">
		<lane id=":108_0_0" index="0" disallow="tram rail_urban rail rail_electric rail_fast ship" speed="13.89" length="10.68" shape="2321.54,222.48 2323.11,233.04" />
	</edge>
	<edge id=":108_1" function="internal">
		<lane id=":108_1_0" index="0" disallow="tram rail_urban rail rail_electric rail_fast ship" speed="6.57" length="8.75" shape="2321.54,222.48 2321.53,224.82 2320.76,226.65 2319.25,227.97 2316.97,228.78" />
	</edge>
	<edge id=":113_0" function="internal">
		<lane id=":113_0_0" index="0" disallow="tram rail_urban rail rail_electric rail_fast ship" speed="27.78" length="0.30" shape="1489.79,115.20 1489.75,114.90" />
	</edge>
	<edge id=":116_0" function="internal">
		<lane id=":116_0_0" index="0" disallow="tram rail_urban rail rail_electric rail_fast ship" speed="13.89" length="0.29" shape="444.08,626.20 444.03,625.92" />
	</edge>
	<edge id=":117_0" function="internal">
		<lane id=":117_0_0" index="0" disallow="tram rail_urban rail rail_electric rail_fast ship" speed="6.37" length="9.04" shape="1470.06,644.17 1469.31,641.78 1467.98,640.26 1466.07,639.60 1463.58,639.81" />
	</edge>
	<edge id=":117_1" function="internal">
		<lane id=":117_1_0" index="0" disallow="tram rail_urban rail rail_electric rail_fast ship" speed="27.78" length="11.45" shape="1474.72,637.17 1463.58,639.81" />
	</edge>
	<edge id=":120_0" function="internal">
		<lane id=":120_0_0" index="0" disallow="tram rail_urban rail rail_electric rail_fast ship" speed="13.89" length="13.63" shape="1995.63,723.37 1984.81,715.10" />
	</edge>
	<edge id=":120_1" function="internal">
		<lane id=":120_1_0" index="0" disallow="tram rail_urban rail rail_electric rail_fast ship" speed="3.65" length="1.44" shape="1995.63,723.37 1995.16,722.01" />
	</edge>
	<edge id=":120_6" function="internal">
		<lane id=":120_6_0" index="0" disallow="tram rail_urban rail rail_electric rail_fast ship" speed="3.65" length="3.23" shape="1995.16,722.01 1995.33,721.13 1996.13,720.74 1997.57,720.83" />
	</edge>
	<edge id=":120_2" function="internal">
		<lane id=":120_2_0" index="0" disallow="tram rail_urban rail rail_electric rail_fast ship" speed="8.23" length="31.72" shape="1999.02,717.09 1988.87,711.47 1985.25,710.22 1988.15,713.34 1997.57,720.83" />
	</edge>
	<edge id=":120_3" function="internal">
		<lane id=":120_3_0" index="0" disallow="tram rail_urban rail rail_electric rail_fast ship" speed="13.89" length="14.57" shape="1999.02,717.09 1995.53,716.15 1991.77,716.30 1988.09,716.34 1984.81,715.10" />
	</edge>
	<edge id=":120_4" function="internal">
		<lane id=":120_4_0" index="0" disallow="tram rail_urban rail rail_electric rail_fast ship" speed="13.89" length="13.61" shape="1986.76,712.56 1997.57,720.83" />
	</edge>
	<edge id=":120_5" function="internal">
		<lane id=":120_5_0" index="0" disallow="tram rail_urban rail rail_electric rail_fast ship" speed="3.65" length="1.44" shape="1986.76,712.56 1987.22,713.93" />
	</edge>
	<edge id=":120_7" function="internal">
		<lane id=":120_7_0" index="0" disallow="tram rail_urban rail rail_electric rail_fast ship" speed="3.65" length="3.23" shape="1987.22,713.93 1987.05,714.81 1986.25,715.20 1984.81,715.10" />
	</edge>
	<edge id=":122_0" function="internal">
		<lane id=":122_0_0" index="0" disallow="tram rail_urban rail rail_electric rail_fast ship" speed="3.91" length="2.52" shape="2211.73,313.54 2211.72,314.22 2211.50,314.75 2211.06,315.12 2210.41,315.33" />
	</edge>
	<edge id=":124_0" function="internal">
		<lane id=":124_0_0" index="0" disallow="tram rail_urban rail rail_electric rail_fast ship" speed="27.78" length="0.30" shape="1389.74,676.37 1389.49,676.53" />
	</edge>
	<edge id=":127_0" function="internal">
		<lane id=":127_0_0" index="0" disallow="tram rail_urban rail rail_electric rail_fast ship" speed="20.84" length="0.29" shape="1528.42,354.76 1528.38,354.47" />
	</edge>
	<edge id=":129_0" function="internal">
		<lane id=":129_0_0" index="0" disallow="tram rail_urban rail rail_electric rail_fast ship" speed="22.22" length="0.18" shape="1916.45,1532.35 1916.31,1532.23" />
	</edge>
	<edge id=":130_0" function="internal">
		<lane id=":130_0_0" index="0" disallow="tram rail_urban rail rail_electric rail_fast ship" speed="6.08" length="9.06" shape="1837.27,1091.35 1835.79,1089.26 1834.06,1088.31 1832.11,1088.52 1829.93,1089.86" />
	</edge>
	<edge id=":130_1" function="internal">
		<lane id=":130_1_0" index="0" disallow="tram rail_urban rail rail_electric rail_fast ship" speed="13.89" length="12.41" shape="1838.58,1081.05 1836.60,1083.74 1834.66,1085.82 1832.51,1087.72 1829.93,1089.86" />
	</edge>
	<edge id=":132_0" function="internal">
		<lane id=":132_0_0" index="0" disallow="tram rail_urban rail rail_electric rail_fast ship" speed="6.34" length="9.04" shape="1767.78,1123.92 1767.04,1121.53 1765.71,1120.01 1763.80,1119.37 1761.31,1119.61" />
	</edge>
	<edge id=":132_1" function="internal">
		<lane id=":132_1_0" index="0" disallow="tram rail_urban rail rail_electric rail_fast ship" speed="27.78" length="14.42" shape="1767.78,1123.92 1765.53,1109.68" />
	</edge>
	<edge id=":132_2" function="internal">
		<lane id=":132_2_0" index="0" disallow="tram rail_urban rail rail_electric rail_fast ship" speed="15.28" length="11.71" shape="1772.50,1116.22 1769.49,1117.40 1766.99,1118.20 1764.46,1118.86 1761.31,1119.61" />
	</edge>
	<edge id=":132_3" function="internal">
		<lane id=":132_3_0" index="0" disallow="tram rail_urban rail rail_electric rail_fast ship" speed="6.70" length="7.05" shape="1772.50,1116.22 1769.97,1116.69 1767.97,1115.75 1766.75,1113.83" />
	</edge>
	<edge id=":132_6" function="internal">
		<lane id=":132_6_0" index="0" disallow="tram rail_urban rail rail_electric rail_fast ship" speed="6.70" length="4.35" shape="1766.75,1113.83 1766.49,1113.42 1765.53,1109.68" />
	</edge>
	<edge id=":132_4" function="internal">
		<lane id=":132_4_0" index="0" disallow="tram rail_urban rail rail_electric rail_fast ship" speed="6.84" length="9.46" shape="1760.55,1116.51 1763.05,1115.55 1764.71,1114.09 1765.54,1112.13 1765.53,1109.68" />
	</edge>
	<edge id=":132_5" function="internal">
		<lane id=":132_5_0" index="0" disallow="tram rail_urban rail rail_electric rail_fast ship" speed="3.65" length="1.44" shape="1760.55,1116.51 1761.90,1117.00" />
	</edge>
	<edge id=":132_7" function="internal">
		<lane id=":132_7_0" index="0" disallow="tram rail_urban rail rail_electric rail_fast ship" speed="3.65" length="3.23" shape="1761.90,1117.00 1762.48,1117.68 1762.28,1118.55 1761.31,1119.61" />
	</edge>
	<edge id=":133_0" function="internal">
		<lane id=":133_0_0" index="0" disallow="tram rail_urban rail rail_electric rail_fast ship" speed="6.24" length="9.05" shape="1930.07,976.34 1929.35,973.92 1928.03,972.42 1926.12,971.84 1923.62,972.18" />
	</edge>
	<edge id=":133_1" function="internal">
		<lane id=":133_1_0" index="0" disallow="tram rail_urban rail rail_electric rail_fast ship" speed="13.89" length="11.45" shape="1934.74,969.51 1931.59,970.05 1929.13,970.62 1926.69,971.29 1923.62,972.18" />
	</edge>
	<edge id=":134_0" function="internal">
		<lane id=":134_0_0" index="0" disallow="tram rail_urban rail rail_electric rail_fast ship" speed="18.05" length="5.82" shape="2071.07,1328.70 2069.90,1329.96 2068.99,1330.71 2067.98,1331.34 2066.48,1332.20" />
	</edge>
	<edge id=":135_0" function="internal">
		<lane id=":135_0_0" index="0" disallow="tram rail_urban rail rail_electric rail_fast ship" speed="3.90" length="2.58" shape="1836.90,1202.21 1836.89,1201.50 1837.10,1200.96 1837.55,1200.58 1838.22,1200.37" />
	</edge>
	<edge id=":136_0" function="internal">
		<lane id=":136_0_0" index="0" disallow="tram rail_urban rail rail_electric rail_fast ship" speed="22.23" length="0.10" shape="1762.63,1090.74 1762.64,1090.82" />
	</edge>
	<edge id=":137_0" function="internal">
		<lane id=":137_0_0" index="0" disallow="tram rail_urban rail rail_electric rail_fast ship" speed="13.89" length="0.30" shape="1722.94,1446.81 1722.65,1446.82" />
	</edge>
	<edge id=":139_0" function="internal">
		<lane id=":139_0_0" index="0" disallow="tram rail_urban rail rail_electric rail_fast ship" speed="22.22" length="11.33" shape="1977.89,1677.05 1976.07,1665.87" />
	</edge>
	<edge id=":139_1" function="internal">
		<lane id=":139_1_0" index="0" disallow="tram rail_urban rail rail_electric rail_fast ship" speed="6.47" length="9.03" shape="1971.29,1672.15 1973.68,1671.49 1975.28,1670.22 1976.07,1668.35 1976.07,1665.87" />
	</edge>
	<edge id=":141_0" function="internal">
		<lane id=":141_0_0" index="0" disallow="tram rail_urban rail rail_electric rail_fast ship" speed="6.40" length="3.23" shape="2077.39,1330.77 2077.43,1327.54" />
	</edge>
	<edge id=":141_1" function="internal">
		<lane id=":141_1_0" index="0" disallow="tram rail_urban rail rail_electric rail_fast ship" speed="6.71" length="4.18" shape="2080.00,1328.92 2081.09,1324.88" />
	</edge>
	<edge id=":142_0" function="internal">
		<lane id=":142_0_0" index="0" disallow="tram rail_urban rail rail_electric rail_fast ship" speed="22.22" length="0.98" shape="2073.05,1337.44 2072.14,1337.82" />
	</edge>
	<edge id=":143_0" function="internal">
		<lane id=":143_0_0" index="0" disallow="tram rail_urban rail rail_electric rail_fast ship" speed="11.11" length="0.29" shape="2005.71,1478.34 2005.84,1478.07" />
	</edge>
	<edge id=":144_0" function="internal">
		<lane id=":144_0_0" index="0" disallow="tram rail_urban rail rail_electric rail_fast ship" speed="4.07" length="1.53" shape="1960.47,1188.03 1960.72,1187.73 1960.89,1187.40 1960.96,1187.04 1960.95,1186.64" />
	</edge>
	<edge id=":145_0" function="internal">
		<lane id=":145_0_0" index="0" disallow="tram rail_urban rail rail_electric rail_fast ship" speed="7.34" length="2.50" shape="1870.13,1369.80 1867.64,1369.65" />
	</edge>
	<edge id=":145_1" function="internal">
		<lane id=":145_1_0" index="0" disallow="tram rail_urban rail rail_electric rail_fast ship" speed="3.65" length="1.44" shape="1870.13,1369.80 1868.82,1369.20" />
	</edge>
	<edge id=":145_4" function="internal">
		<lane id=":145_4_0" index="0" disallow="tram rail_urban rail rail_electric rail_fast ship" speed="7.34" length="9.22" shape="1867.64,1369.65 1865.65,1368.29 1864.17,1365.74 1863.20,1361.99" />
	</edge>
	<edge id=":145_5" function="internal">
		<lane id=":145_5_0" index="0" disallow="tram rail_urban rail rail_electric rail_fast ship" speed="3.65" length="3.23" shape="1868.82,1369.20 1868.30,1368.47 1868.57,1367.62 1869.63,1366.64" />
	</edge>
	<edge id=":145_2" function="internal">
		<lane id=":145_2_0" index="0" disallow="tram rail_urban rail rail_electric rail_fast ship" speed="6.50" length="9.03" shape="1858.57,1368.41 1860.94,1367.68 1862.50,1366.36 1863.25,1364.47 1863.20,1361.99" />
	</edge>
	<edge id=":145_3" function="internal">
		<lane id=":145_3_0" index="0" disallow="tram rail_urban rail rail_electric rail_fast ship" speed="13.89" length="11.20" shape="1858.57,1368.41 1869.63,1366.64" />
	</edge>
	<edge id=":146_0" function="internal">
		<lane id=":146_0_0" index="0" disallow="tram rail_urban rail rail_electric rail_fast ship" speed="13.89" length="11.20" shape="1979.14,1352.32 1968.08,1354.09" />
	</edge>
	<edge id=":146_1" function="internal">
		<lane id=":146_1_0" index="0" disallow="tram rail_urban rail rail_electric rail_fast ship" speed="7.34" length="2.50" shape="1979.14,1352.32 1976.64,1352.16" />
	</edge>
	<edge id=":146_2" function="internal">
		<lane id=":146_2_0" index="0" disallow="tram rail_urban rail rail_electric rail_fast ship" speed="3.65" length="1.44" shape="1979.14,1352.32 1977.83,1351.72" />
	</edge>
	<edge id=":146_6" function="internal">
		<lane id=":146_6_0" index="0" disallow="tram rail_urban rail rail_electric rail_fast ship" speed="7.34" length="9.23" shape="1976.64,1352.16 1974.65,1350.81 1973.17,1348.26 1972.20,1344.51" />
	</edge>
	<edge id=":146_7" function="internal">
		<lane id=":146_7_0" index="0" disallow="tram rail_urban rail rail_electric rail_fast ship" speed="3.65" length="3.23" shape="1977.83,1351.72 1977.31,1350.99 1977.57,1350.14 1978.63,1349.16" />
	</edge>
	<edge id=":146_3" function="internal">
		<lane id=":146_3_0" index="0" disallow="tram rail_urban rail rail_electric rail_fast ship" speed="6.50" length="9.03" shape="1967.57,1350.93 1969.94,1350.20 1971.50,1348.88 1972.25,1346.99 1972.20,1344.51" />
	</edge>
	<edge id=":146_4" function="internal">
		<lane id=":146_4_0" index="0" disallow="tram rail_urban rail rail_electric rail_fast ship" speed="13.89" length="11.20" shape="1967.57,1350.93 1978.63,1349.16" />
	</edge>
	<edge id=":146_5" function="internal">
		<lane id=":146_5_0" index="0" disallow="tram rail_urban rail rail_electric rail_fast ship" speed="3.65" length="1.44" shape="1967.57,1350.93 1968.89,1351.53" />
	</edge>
	<edge id=":146_8" function="internal">
		<lane id=":146_8_0" index="0" disallow="tram rail_urban rail rail_electric rail_fast ship" speed="3.65" length="3.23" shape="1968.89,1351.53 1969.41,1352.26 1969.14,1353.11 1968.08,1354.09" />
	</edge>
	<edge id=":147_0" function="internal">
		<lane id=":147_0_0" index="0" disallow="tram rail_urban rail rail_electric rail_fast ship" speed="3.91" length="2.53" shape="1868.46,1195.41 1869.12,1195.21 1869.56,1194.84 1869.78,1194.31 1869.78,1193.62" />
	</edge>
	<edge id=":148_0" function="internal">
		<lane id=":148_0_0" index="0" disallow="tram rail_urban rail rail_electric rail_fast ship" speed="13.89" length="0.22" shape="1768.85,1445.38 1768.63,1445.38" />
	</edge>
	<edge id=":152_0" function="internal">
		<lane id=":152_0_0" index="0" disallow="tram rail_urban rail rail_electric rail_fast ship" speed="13.89" length="11.18" shape="356.83,1065.68 355.22,1054.61" />
	</edge>
	<edge id=":152_1" function="internal">
		<lane id=":152_1_0" index="0" disallow="tram rail_urban rail rail_electric rail_fast ship" speed="6.51" length="4.10" shape="361.56,1059.35 359.09,1059.35 357.59,1058.72" />
	</edge>
	<edge id=":152_2" function="internal">
		<lane id=":152_2_0" index="0" disallow="tram rail_urban rail rail_electric rail_fast ship" speed="6.51" length="4.92" shape="357.59,1058.72 357.21,1058.56 355.92,1056.98 355.22,1054.61" />
	</edge>
	<edge id=":153_0" function="internal">
		<lane id=":153_0_0" index="0" disallow="tram rail_urban rail rail_electric rail_fast ship" speed="13.89" length="0.10" shape="512.18,1661.23 512.18,1661.23" />
	</edge>
	<edge id=":156_0" function="internal">
		<lane id=":156_0_0" index="0" disallow="tram rail_urban rail rail_electric rail_fast ship" speed="13.89" length="11.20" shape="794.51,1702.98 792.85,1691.91" />
	</edge>
	<edge id=":156_1" function="internal">
		<lane id=":156_1_0" index="0" disallow="tram rail_urban rail rail_electric rail_fast ship" speed="3.65" length="1.23" shape="794.51,1702.98 795.03,1701.86" />
	</edge>
	<edge id=":156_4" function="internal">
		<lane id=":156_4_0" index="0" disallow="tram rail_urban rail rail_electric rail_fast ship" speed="3.65" length="3.44" shape="795.03,1701.86 795.12,1701.68 795.86,1701.16 796.71,1701.44 797.67,1702.51" />
	</edge>
	<edge id=":156_2" function="internal">
		<lane id=":156_2_0" index="0" disallow="tram rail_urban rail rail_electric rail_fast ship" speed="6.51" length="9.03" shape="788.14,1698.27 790.51,1697.56 792.09,1696.27 792.87,1694.38 792.85,1691.91" />
	</edge>
	<edge id=":156_3" function="internal">
		<lane id=":156_3_0" index="0" disallow="tram rail_urban rail rail_electric rail_fast ship" speed="7.33" length="11.73" shape="788.14,1698.27 792.00,1698.05 794.88,1698.68 796.77,1700.17 797.67,1702.51" />
	</edge>
	<edge id=":157_0" function="internal">
		<lane id=":157_0_0" index="0" disallow="tram rail_urban rail rail_electric rail_fast ship" speed="13.89" length="0.10" shape="393.73,1325.58 393.73,1325.58" />
	</edge>
	<edge id=":160_0" function="internal">
		<lane id=":160_0_0" index="0" disallow="tram rail_urban rail rail_electric rail_fast ship" speed="13.89" length="11.22" shape="846.28,1160.96 835.18,1162.60" />
	</edge>
	<edge id=":160_1" function="internal">
		<lane id=":160_1_0" index="0" disallow="tram rail_urban rail rail_electric rail_fast ship" speed="7.41" length="2.52" shape="846.28,1160.96 843.77,1160.74" />
	</edge>
	<edge id=":160_2" function="internal">
		<lane id=":160_2_0" index="0" disallow="tram rail_urban rail rail_electric rail_fast ship" speed="3.65" length="1.44" shape="846.28,1160.96 844.98,1160.33" />
	</edge>
	<edge id=":160_6" function="internal">
		<lane id=":160_6_0" index="0" disallow="tram rail_urban rail rail_electric rail_fast ship" speed="7.41" length="9.26" shape="843.77,1160.74 841.77,1159.35 840.30,1156.78 839.34,1153.04" />
	</edge>
	<edge id=":160_7" function="internal">
		<lane id=":160_7_0" index="0" disallow="tram rail_urban rail rail_electric rail_fast ship" speed="3.65" length="3.23" shape="844.98,1160.33 844.48,1159.59 844.77,1158.74 845.85,1157.79" />
	</edge>
	<edge id=":160_3" function="internal">
		<lane id=":160_3_0" index="0" disallow="tram rail_urban rail rail_electric rail_fast ship" speed="6.49" length="9.03" shape="834.69,1159.43 837.06,1158.71 838.63,1157.40 839.39,1155.51 839.34,1153.04" />
	</edge>
	<edge id=":160_4" function="internal">
		<lane id=":160_4_0" index="0" disallow="tram rail_urban rail rail_electric rail_fast ship" speed="13.89" length="11.28" shape="834.69,1159.43 845.85,1157.79" />
	</edge>
	<edge id=":160_5" function="internal">
		<lane id=":160_5_0" index="0" disallow="tram rail_urban rail rail_electric rail_fast ship" speed="3.65" length="1.44" shape="834.69,1159.43 836.00,1160.04" />
	</edge>
	<edge id=":160_8" function="internal">
		<lane id=":160_8_0" index="0" disallow="tram rail_urban rail rail_electric rail_fast ship" speed="3.65" length="3.23" shape="836.00,1160.04 836.52,1160.77 836.24,1161.62 835.18,1162.60" />
	</edge>
	<edge id=":161_0" function="internal">
		<lane id=":161_0_0" index="0" disallow="tram rail_urban rail rail_electric rail_fast ship" speed="13.89" length="11.06" shape="726.78,1244.44 725.07,1233.51" />
	</edge>
	<edge id=":161_1" function="internal">
		<lane id=":161_1_0" index="0" disallow="tram rail_urban rail rail_electric rail_fast ship" speed="6.54" length="8.99" shape="731.42,1238.23 728.95,1238.20 727.06,1237.40 725.77,1235.84 725.07,1233.51" />
	</edge>
	<edge id=":162_0" function="internal">
		<lane id=":162_0_0" index="0" disallow="tram rail_urban rail rail_electric rail_fast ship" speed="22.22" length="11.20" shape="676.69,1719.93 675.08,1708.84" />
	</edge>
	<edge id=":162_1" function="internal">
		<lane id=":162_1_0" index="0" disallow="tram rail_urban rail rail_electric rail_fast ship" speed="6.49" length="9.04" shape="676.69,1719.93 676.70,1717.44 677.50,1715.56 679.09,1714.29 681.47,1713.62" />
	</edge>
	<edge id=":162_2" function="internal">
		<lane id=":162_2_0" index="0" disallow="tram rail_urban rail rail_electric rail_fast ship" speed="6.54" length="9.01" shape="670.37,1715.22 672.74,1714.48 674.31,1713.17 675.09,1711.29 675.08,1708.84" />
	</edge>
	<edge id=":162_3" function="internal">
		<lane id=":162_3_0" index="0" disallow="tram rail_urban rail rail_electric rail_fast ship" speed="13.89" length="11.21" shape="670.37,1715.22 681.47,1713.62" />
	</edge>
	<edge id=":163_0" function="internal">
		<lane id=":163_0_0" index="0" disallow="tram rail_urban rail rail_electric rail_fast ship" speed="13.89" length="0.10" shape="579.54,1300.33 579.54,1300.33" />
	</edge>
	<edge id=":164_0" function="internal">
		<lane id=":164_0_0" index="0" disallow="tram rail_urban rail rail_electric rail_fast ship" speed="6.52" length="8.98" shape="786.06,1236.87 785.37,1234.50 784.10,1232.91 782.24,1232.09 779.80,1232.06" />
	</edge>
	<edge id=":164_1" function="internal">
		<lane id=":164_1_0" index="0" disallow="tram rail_urban rail rail_electric rail_fast ship" speed="13.89" length="11.07" shape="790.77,1230.60 779.80,1232.06" />
	</edge>
	<edge id=":165_0" function="internal">
		<lane id=":165_0_0" index="0" disallow="tram rail_urban rail rail_electric rail_fast ship" speed="6.51" length="9.02" shape="884.60,1155.73 882.23,1156.43 880.65,1157.72 879.86,1159.60 879.86,1162.07" />
	</edge>
	<edge id=":165_1" function="internal">
		<lane id=":165_1_0" index="0" disallow="tram rail_urban rail rail_electric rail_fast ship" speed="13.89" length="11.16" shape="884.60,1155.73 873.54,1157.29" />
	</edge>
	<edge id=":165_2" function="internal">
		<lane id=":165_2_0" index="0" disallow="tram rail_urban rail rail_electric rail_fast ship" speed="3.65" length="1.44" shape="884.60,1155.73 883.30,1155.11" />
	</edge>
	<edge id=":165_6" function="internal">
		<lane id=":165_6_0" index="0" disallow="tram rail_urban rail rail_electric rail_fast ship" speed="3.65" length="3.23" shape="883.30,1155.11 882.79,1154.38 883.07,1153.53 884.14,1152.56" />
	</edge>