<?xml version='1.0' encoding='utf-8'?>
<net xmlns:xsi="http://www.w3.org/2001/XMLSchema-instance" version="1.9" junctionCornerDetail="5" limitTurnSpeed="5.50" xsi:noNamespaceSchemaLocation="http://sumo.dlr.de/xsd/net_file.xsd">
	<location netOffset="-336586.08,3754670.31" convBoundary="0.00,12.34,2397.89,2196.77" origBoundary="151.232525,-33.920080,151.266296,-33.899237" projParameter="+proj=utm +zone=56 +ellps=WGS84 +datum=WGS84 +units=m +no_defs" />
	<subgraphs>
		<subgraph id="maximal_similarity_0" from_junction="77" to_junction="357" edges="629,19,174,123,740,505,752,631,403,340,159,953,639,8,503,508,903,840,1059,906,404,161,166,510,468,175,770,747,861,20,908,469,954,339,892,893,506,640,507,909,635,658,630,39,124,634,559,400,907,211,637,673,738,863,307,767,1009,294,399,839,509,1057,749,638,853,636,674,410,862,165,633,212,21,164,996,748,411,295,306,213" />
		<subgraph id="maximal_similarity_1" from_junction="315" to_junction="241" edges="342,616,232,19,283,710,123,472,988,828,513,379,403,340,941,9,538,425,594,377,874,407,875,404,831,285,10,641,341,611,770,378,485,209,812,197,771,20,332,47,772,535,829,897,339,810,55,827,832,708,796,333,937,942,587,56,124,426,1010,12,763,709,46,427,969,400,609,284,428,6,52,367,811,424,826,769,54,471,959,399,931,331,334,483,615,890,53,21,940,51,501,382,896,795,504,805,558,970,11,423" />
		<subgraph id="maximal_similarity_2" from_junction="388" to_junction="87" edges="726,629,725,180,759,446,631,1023,684,1012,152,643,312,619,864,906,248,201,278,310,468,806,808,747,200,797,981,758,908,977,469,699,1024,719,179,1026,642,649,645,557,635,909,630,1027,717,634,265,907,214,203,865,307,863,189,997,721,202,716,294,807,724,853,749,787,636,1058,760,633,707,249,723,854,718,748,295,978,264,644,788" />
		<subgraph id="maximal_similarity_3" from_junction="316" to_junction="241" edges="19,283,513,505,403,5,340,595,538,831,267,500,591,485,197,311,20,829,985,339,55,827,926,832,289,796,333,279,511,989,587,124,56,1010,211,934,428,6,811,826,29,935,54,92,399,406,334,990,984,286,212,53,940,107,795,501,929,423,342,616,232,123,988,335,828,740,512,941,9,65,290,742,425,714,874,407,875,404,285,10,641,341,770,812,946,944,535,943,930,945,426,427,400,969,284,391,887,52,367,424,280,1009,769,250,471,959,928,373,410,615,890,21,262,51,411,22,504,213" />
	</subgraphs>
	<type id="highway.bridleway" priority="1" numLanes="1" speed="2.78" allow="pedestrian" oneway="1" width="2.00" />
	<type id="highway.bus_guideway" priority="1" numLanes="1" speed="27.78" allow="bus" oneway="1" />
	<type id="highway.cycleway" priority="1" numLanes="1" speed="8.33" allow="bicycle" oneway="0" width="1.00" />
	<type id="highway.footway" priority="1" numLanes="1" speed="2.78" allow="pedestrian" oneway="1" width="2.00" />
	<type id="highway.ford" priority="1" numLanes="1" speed="2.78" allow="army" oneway="0" />
	<type id="highway.living_street" priority="2" numLanes="1" speed="2.78" disallow="tram rail_urban rail rail_electric rail_fast ship" oneway="0" />
	<type id="highway.motorway" priority="14" numLanes="2" speed="39.44" allow="private emergency authority army vip passenger hov taxi bus coach delivery truck trailer motorcycle evehicle custom1 custom2" oneway="1" />
	<type id="highway.motorway_link" priority="9" numLanes="1" speed="22.22" allow="private emergency authority army vip passenger hov taxi bus coach delivery truck trailer motorcycle evehicle custom1 custom2" oneway="1" />
	<type id="highway.path" priority="1" numLanes="1" speed="2.78" allow="pedestrian bicycle" oneway="0" width="2.00" />
	<type id="highway.pedestrian" priority="1" numLanes="1" speed="2.78" allow="pedestrian" oneway="1" width="2.00" />
	<type id="highway.primary" priority="12" numLanes="2" speed="27.78" disallow="tram rail_urban rail rail_electric rail_fast ship" oneway="0" />
	<type id="highway.primary_link" priority="7" numLanes="1" speed="22.22" disallow="tram rail_urban rail rail_electric rail_fast ship" oneway="0" />
	<type id="highway.raceway" priority="15" numLanes="2" speed="83.33" allow="vip" oneway="0" />
	<type id="highway.residential" priority="3" numLanes="1" speed="13.89" disallow="tram rail_urban rail rail_electric rail_fast ship" oneway="0" />
	<type id="highway.secondary" priority="11" numLanes="1" speed="27.78" disallow="tram rail_urban rail rail_electric rail_fast ship" oneway="0" />
	<type id="highway.secondary_link" priority="6" numLanes="1" speed="22.22" disallow="tram rail_urban rail rail_electric rail_fast ship" oneway="0" />
	<type id="highway.service" priority="1" numLanes="1" speed="5.56" allow="pedestrian delivery bicycle" oneway="0" />
	<type id="highway.stairs" priority="1" numLanes="1" speed="1.39" allow="pedestrian" oneway="1" width="2.00" />
	<type id="highway.step" priority="1" numLanes="1" speed="1.39" allow="pedestrian" oneway="1" width="2.00" />
	<type id="highway.steps" priority="1" numLanes="1" speed="1.39" allow="pedestrian" oneway="1" width="2.00" />
	<type id="highway.tertiary" priority="10" numLanes="1" speed="22.22" disallow="tram rail_urban rail rail_electric rail_fast ship" oneway="0" />
	<type id="highway.tertiary_link" priority="5" numLanes="1" speed="22.22" disallow="tram rail_urban rail rail_electric rail_fast ship" oneway="0" />
	<type id="highway.track" priority="1" numLanes="1" speed="5.56" allow="pedestrian motorcycle moped bicycle" oneway="0" />
	<type id="highway.trunk" priority="13" numLanes="2" speed="27.78" disallow="pedestrian bicycle tram rail_urban rail rail_electric rail_fast ship" oneway="0" />
	<type id="highway.trunk_link" priority="8" numLanes="1" speed="22.22" disallow="pedestrian bicycle tram rail_urban rail rail_electric rail_fast ship" oneway="0" />
	<type id="highway.unclassified" priority="4" numLanes="1" speed="13.89" disallow="tram rail_urban rail rail_electric rail_fast ship" oneway="0" />
	<type id="highway.unsurfaced" priority="1" numLanes="1" speed="8.33" disallow="tram rail_urban rail rail_electric rail_fast ship" oneway="0" />
	<type id="railway.highspeed" priority="21" numLanes="1" speed="69.44" allow="rail_fast" oneway="1" />
	<type id="railway.light_rail" priority="19" numLanes="1" speed="27.78" allow="rail_urban" oneway="1" />
	<type id="railway.preserved" priority="16" numLanes="1" speed="27.78" allow="rail" oneway="1" />
	<type id="railway.rail" priority="20" numLanes="1" speed="44.44" allow="rail" oneway="1" />
	<type id="railway.subway" priority="18" numLanes="1" speed="27.78" allow="rail_urban" oneway="1" />
	<type id="railway.tram" priority="17" numLanes="1" speed="13.89" allow="tram" oneway="1" />
	<edge id=":101_0" function="internal">
		<lane id=":101_0_0" index="0" disallow="tram rail_urban rail rail_electric rail_fast ship" speed="22.22" length="11.21" shape="1708.45,592.73 1697.39,594.49" />
	</edge>
	<edge id=":101_1" function="internal">
		<lane id=":101_1_0" index="0" disallow="tram rail_urban rail rail_electric rail_fast ship" speed="6.51" length="9.04" shape="1708.45,592.73 1705.98,592.77 1704.08,592.02 1702.77,590.45 1702.03,588.08" />
	</edge>
	<edge id=":103_0" function="internal">
		<lane id=":103_0_0" index="0" disallow="tram rail_urban rail rail_electric rail_fast ship" speed="3.91" length="2.53" shape="2204.42,247.48 2203.76,247.68 2203.32,248.05 2203.10,248.58 2203.09,249.27" />
	</edge>
	<edge id=":104_0" function="internal">
		<lane id=":104_0_0" index="0" disallow="tram rail_urban rail rail_electric rail_fast ship" speed="13.89" length="11.20" shape="1533.88,388.58 1532.09,377.52" />
	</edge>
	<edge id=":104_1" function="internal">
		<lane id=":104_1_0" index="0" disallow="tram rail_urban rail rail_electric rail_fast ship" speed="6.50" length="9.03" shape="1527.44,383.92 1529.81,383.20 1531.38,381.89 1532.14,380.00 1532.09,377.52" />
	</edge>
	<edge id=":108_0" function="internal">
		<lane id=":108_0_0" index="0" disallow="tram rail_urban rail rail_electric rail_fast ship" speed="13.89" length="10.68" shape="2321.54,222.48 2323.11,233.04" />
	</edge>
	<edge id=":108_1" function="internal">
		<lane id=":108_1_0" index="0" disallow="tram rail_urban rail rail_electric rail_fast ship" speed="6.57" length="8.75" shape="2321.54,222.48 2321.53,224.82 2320.76,226.65 2319.25,227.97 2316.97,228.78" />
	</edge>
	<edge id=":113_0" function="internal">
		<lane id=":113_0_0" index="0" disallow="tram rail_urban rail rail_electric rail_fast ship" speed="27.78" length="0.30" shape="1489.79,115.20 1489.75,114.90" />
	</edge>
	<edge id=":116_0" function="internal">
		<lane id=":116_0_0" index="0" disallow="tram rail_urban rail rail_electric rail_fast ship" speed="13.89" length="0.29" shape="444.08,626.20 444.03,625.92" />
	</edge>
	<edge id=":117_0" function="internal">
		<lane id=":117_0_0" index="0" disallow="tram rail_urban rail rail_electric rail_fast ship" speed="27.78" length="0.28" shape="1470.96,638.11 1470.69,638.18" />
	</edge>
	<edge id=":120_0" function="internal">
		<lane id=":120_0_0" index="0" disallow="tram rail_urban rail rail_electric rail_fast ship" speed="13.89" length="0.31" shape="1986.72,716.57 1986.47,716.38" />
	</edge>
	<edge id=":120_1" function="internal">
		<lane id=":120_1_0" index="0" disallow="tram rail_urban rail rail_electric rail_fast ship" speed="3.65" length="2.34" shape="1986.72,716.57 1986.25,715.21 1986.42,714.33" />
	</edge>
	<edge id=":120_4" function="internal">
		<lane id=":120_4_0" index="0" disallow="tram rail_urban rail rail_electric rail_fast ship" speed="3.65" length="2.34" shape="1986.42,714.33 1987.22,713.94 1988.66,714.03" />
	</edge>
	<edge id=":120_2" function="internal">
		<lane id=":120_2_0" index="0" disallow="tram rail_urban rail rail_electric rail_fast ship" speed="13.89" length="0.29" shape="1988.43,713.85 1988.66,714.03" />
	</edge>
	<edge id=":120_3" function="internal">
		<lane id=":120_3_0" index="0" disallow="tram rail_urban rail rail_electric rail_fast ship" speed="3.65" length="2.34" shape="1988.43,713.85 1988.89,715.22 1988.72,716.10" />
	</edge>
	<edge id=":120_5" function="internal">
		<lane id=":120_5_0" index="0" disallow="tram rail_urban rail rail_electric rail_fast ship" speed="3.65" length="2.34" shape="1988.72,716.10 1987.91,716.49 1986.47,716.38" />
	</edge>
	<edge id=":122_0" function="internal">
		<lane id=":122_0_0" index="0" disallow="tram rail_urban rail rail_electric rail_fast ship" speed="3.91" length="2.52" shape="2211.73,313.54 2211.72,314.22 2211.50,314.75 2211.06,315.12 2210.41,315.33" />
	</edge>
	<edge id=":124_0" function="internal">
		<lane id=":124_0_0" index="0" disallow="tram rail_urban rail rail_electric rail_fast ship" speed="27.78" length="0.30" shape="1389.74,676.37 1389.49,676.53" />
	</edge>
	<edge id=":127_0" function="internal">
		<lane id=":127_0_0" index="0" disallow="tram rail_urban rail rail_electric rail_fast ship" speed="20.84" length="11.22" shape="1529.04,358.57 1527.33,347.49" />
	</edge>
	<edge id=":127_1" function="internal">
		<lane id=":127_1_0" index="0" disallow="tram rail_urban rail rail_electric rail_fast ship" speed="6.51" length="9.06" shape="1529.04,358.57 1528.99,356.10 1529.76,354.20 1531.33,352.89 1533.71,352.15" />
	</edge>
	<edge id=":129_0" function="internal">
		<lane id=":129_0_0" index="0" disallow="tram rail_urban rail rail_electric rail_fast ship" speed="22.22" length="0.18" shape="1916.45,1532.35 1916.31,1532.23" />
	</edge>
	<edge id=":130_0" function="internal">
		<lane id=":130_0_0" index="0" disallow="tram rail_urban rail rail_electric rail_fast ship" speed="13.89" length="0.47" shape="1836.38,1084.39 1836.30,1084.51 1836.24,1084.58 1836.17,1084.65 1836.07,1084.74" />
	</edge>
	<edge id=":132_0" function="internal">
		<lane id=":132_0_0" index="0" disallow="tram rail_urban rail rail_electric rail_fast ship" speed="6.34" length="9.04" shape="1767.78,1123.92 1767.04,1121.53 1765.71,1120.01 1763.80,1119.37 1761.31,1119.61" />
	</edge>
	<edge id=":132_1" function="internal">
		<lane id=":132_1_0" index="0" disallow="tram rail_urban rail rail_electric rail_fast ship" speed="27.78" length="11.48" shape="1767.78,1123.92 1765.99,1112.59" />
	</edge>
	<edge id=":132_2" function="internal">
		<lane id=":132_2_0" index="0" disallow="tram rail_urban rail rail_electric rail_fast ship" speed="15.28" length="11.71" shape="1772.50,1116.22 1769.49,1117.40 1766.99,1118.20 1764.46,1118.86 1761.31,1119.61" />
	</edge>
	<edge id=":132_3" function="internal">
		<lane id=":132_3_0" index="0" disallow="tram rail_urban rail rail_electric rail_fast ship" speed="6.05" length="9.07" shape="1772.50,1116.22 1770.00,1116.87 1768.08,1116.48 1766.75,1115.05 1765.99,1112.59" />
	</edge>
	<edge id=":133_0" function="internal">
		<lane id=":133_0_0" index="0" disallow="tram rail_urban rail rail_electric rail_fast ship" speed="6.24" length="9.05" shape="1930.07,976.34 1929.35,973.92 1928.03,972.42 1926.12,971.84 1923.62,972.18" />
	</edge>
	<edge id=":133_1" function="internal">
		<lane id=":133_1_0" index="0" disallow="tram rail_urban rail rail_electric rail_fast ship" speed="13.89" length="11.45" shape="1934.74,969.51 1931.59,970.05 1929.13,970.62 1926.69,971.29 1923.62,972.18" />
	</edge>
	<edge id=":134_0" function="internal">
		<lane id=":134_0_0" index="0" disallow="tram rail_urban rail rail_electric rail_fast ship" speed="18.05" length="5.82" shape="2071.07,1328.70 2069.90,1329.96 2068.99,1330.71 2067.98,1331.34 2066.48,1332.20" />
	</edge>
	<edge id=":135_0" function="internal">
		<lane id=":135_0_0" index="0" disallow="tram rail_urban rail rail_electric rail_fast ship" speed="3.90" length="2.58" shape="1837.42,1205.36 1837.21,1204.69 1836.83,1204.25 1836.29,1204.03 1835.58,1204.05" />
	</edge>
	<edge id=":136_0" function="internal">
		<lane id=":136_0_0" index="0" disallow="tram rail_urban rail rail_electric rail_fast ship" speed="22.23" length="0.10" shape="1762.63,1090.74 1762.64,1090.82" />
	</edge>
	<edge id=":139_0" function="internal">
		<lane id=":139_0_0" index="0" disallow="tram rail_urban rail rail_electric rail_fast ship" speed="22.22" length="0.10" shape="1977.12,1673.13 1977.11,1673.05" />
	</edge>
	<edge id=":141_0" function="internal">
		<lane id=":141_0_0" index="0" disallow="tram rail_urban rail rail_electric rail_fast ship" speed="6.40" length="3.23" shape="2077.39,1330.77 2077.43,1327.54" />
	</edge>
	<edge id=":141_1" function="internal">
		<lane id=":141_1_0" index="0" disallow="tram rail_urban rail rail_electric rail_fast ship" speed="6.71" length="4.18" shape="2080.00,1328.92 2081.09,1324.88" />
	</edge>
	<edge id=":142_0" function="internal">
		<lane id=":142_0_0" index="0" disallow="tram rail_urban rail rail_electric rail_fast ship" speed="10.69" length="4.87" shape="2069.55,1337.10 2069.83,1338.45 2069.67,1339.41 2069.29,1340.40 2068.91,1341.80" />
	</edge>
	<edge id=":143_0" function="internal">
		<lane id=":143_0_0" index="0" disallow="tram rail_urban rail rail_electric rail_fast ship" speed="11.11" length="0.29" shape="2005.71,1478.34 2005.84,1478.07" />
	</edge>
	<edge id=":144_0" function="internal">
		<lane id=":144_0_0" index="0" disallow="tram rail_urban rail rail_electric rail_fast ship" speed="4.07" length="1.53" shape="1960.47,1188.03 1960.72,1187.73 1960.89,1187.40 1960.96,1187.04 1960.95,1186.64" />
	</edge>
	<edge id=":145_0" function="internal">
		<lane id=":145_0_0" index="0" disallow="tram rail_urban rail rail_electric rail_fast ship" speed="7.34" length="2.50" shape="1870.13,1369.80 1867.64,1369.65" />
	</edge>
	<edge id=":145_1" function="internal">
		<lane id=":145_1_0" index="0" disallow="tram rail_urban rail rail_electric rail_fast ship" speed="3.65" length="1.44" shape="1870.13,1369.80 1868.82,1369.20" />
	</edge>
	<edge id=":145_4" function="internal">
		<lane id=":145_4_0" index="0" disallow="tram rail_urban rail rail_electric rail_fast ship" speed="7.34" length="9.22" shape="1867.64,1369.65 1865.65,1368.29 1864.17,1365.74 1863.20,1361.99" />
	</edge>
	<edge id=":145_5" function="internal">
		<lane id=":145_5_0" index="0" disallow="tram rail_urban rail rail_electric rail_fast ship" speed="3.65" length="3.23" shape="1868.82,1369.20 1868.30,1368.47 1868.57,1367.62 1869.63,1366.64" />
	</edge>
	<edge id=":145_2" function="internal">
		<lane id=":145_2_0" index="0" disallow="tram rail_urban rail rail_electric rail_fast ship" speed="6.50" length="9.03" shape="1858.57,1368.41 1860.94,1367.68 1862.50,1366.36 1863.25,1364.47 1863.20,1361.99" />
	</edge>
	<edge id=":145_3" function="internal">
		<lane id=":145_3_0" index="0" disallow="tram rail_urban rail rail_electric rail_fast ship" speed="13.89" length="11.20" shape="1858.57,1368.41 1869.63,1366.64" />
	</edge>
	<edge id=":146_0" function="internal">
		<lane id=":146_0_0" index="0" disallow="tram rail_urban rail rail_electric rail_fast ship" speed="13.89" length="11.20" shape="1979.14,1352.32 1968.08,1354.09" />
	</edge>
	<edge id=":146_1" function="internal">
		<lane id=":146_1_0" index="0" disallow="tram rail_urban rail rail_electric rail_fast ship" speed="7.34" length="2.50" shape="1979.14,1352.32 1976.64,1352.16" />
	</edge>
	<edge id=":146_2" function="internal">
		<lane id=":146_2_0" index="0" disallow="tram rail_urban rail rail_electric rail_fast ship" speed="3.65" length="1.44" shape="1979.14,1352.32 1977.83,1351.72" />
	</edge>
	<edge id=":146_6" function="internal">
		<lane id=":146_6_0" index="0" disallow="tram rail_urban rail rail_electric rail_fast ship" speed="7.34" length="9.23" shape="1976.64,1352.16 1974.65,1350.81 1973.17,1348.26 1972.20,1344.51" />
	</edge>
	<edge id=":146_7" function="internal">
		<lane id=":146_7_0" index="0" disallow="tram rail_urban rail rail_electric rail_fast ship" speed="3.65" length="3.23" shape="1977.83,1351.72 1977.31,1350.99 1977.57,1350.14 1978.63,1349.16" />
	</edge>
	<edge id=":146_3" function="internal">
		<lane id=":146_3_0" index="0" disallow="tram rail_urban rail rail_electric rail_fast ship" speed="6.50" length="9.03" shape="1967.57,1350.93 1969.94,1350.20 1971.50,1348.88 1972.25,1346.99 1972.20,1344.51" />
	</edge>
	<edge id=":146_4" function="internal">
		<lane id=":146_4_0" index="0" disallow="tram rail_urban rail rail_electric rail_fast ship" speed="13.89" length="11.20" shape="1967.57,1350.93 1978.63,1349.16" />
	</edge>
	<edge id=":146_5" function="internal">
		<lane id=":146_5_0" index="0" disallow="tram rail_urban rail rail_electric rail_fast ship" speed="3.65" length="1.44" shape="1967.57,1350.93 1968.89,1351.53" />
	</edge>
	<edge id=":146_8" function="internal">
		<lane id=":146_8_0" index="0" disallow="tram rail_urban rail rail_electric rail_fast ship" speed="3.65" length="3.23" shape="1968.89,1351.53 1969.41,1352.26 1969.14,1353.11 1968.08,1354.09" />
	</edge>
	<edge id=":153_0" function="internal">
		<lane id=":153_0_0" index="0" disallow="tram rail_urban rail rail_electric rail_fast ship" speed="13.89" length="0.10" shape="512.18,1661.23 512.18,1661.23" />
	</edge>
	<edge id=":155_0" function="internal">
		<lane id=":155_0_0" index="0" disallow="tram rail_urban rail rail_electric rail_fast ship" speed="15.28" length="0.30" shape="580.31,1195.37 580.60,1195.33" />
	</edge>
	<edge id=":156_0" function="internal">
		<lane id=":156_0_0" index="0" disallow="tram rail_urban rail rail_electric rail_fast ship" speed="13.89" length="11.20" shape="794.51,1702.98 792.85,1691.91" />
	</edge>
	<edge id=":156_1" function="internal">
		<lane id=":156_1_0" index="0" disallow="tram rail_urban rail rail_electric rail_fast ship" speed="3.65" length="1.23" shape="794.51,1702.98 795.03,1701.86" />
	</edge>
	<edge id=":156_4" function="internal">
		<lane id=":156_4_0" index="0" disallow="tram rail_urban rail rail_electric rail_fast ship" speed="3.65" length="3.44" shape="795.03,1701.86 795.12,1701.68 795.86,1701.16 796.71,1701.44 797.67,1702.51" />
	</edge>
	<edge id=":156_2" function="internal">
		<lane id=":156_2_0" index="0" disallow="tram rail_urban rail rail_electric rail_fast ship" speed="6.51" length="9.03" shape="788.14,1698.27 790.51,1697.56 792.09,1696.27 792.87,1694.38 792.85,1691.91" />
	</edge>
	<edge id=":156_3" function="internal">
		<lane id=":156_3_0" index="0" disallow="tram rail_urban rail rail_electric rail_fast ship" speed="7.33" length="11.73" shape="788.14,1698.27 792.00,1698.05 794.88,1698.68 796.77,1700.17 797.67,1702.51" />
	</edge>
	<edge id=":160_0" function="internal">
		<lane id=":160_0_0" index="0" disallow="tram rail_urban rail rail_electric rail_fast ship" speed="7.39" length="2.47" shape="846.16,1160.97 843.70,1160.75" />
	</edge>
	<edge id=":160_1" function="internal">
		<lane id=":160_1_0" index="0" disallow="tram rail_urban rail rail_electric rail_fast ship" speed="3.65" length="1.44" shape="846.16,1160.97 844.87,1160.34" />
	</edge>
	<edge id=":160_4" function="internal">
		<lane id=":160_4_0" index="0" disallow="tram rail_urban rail rail_electric rail_fast ship" speed="7.39" length="9.22" shape="843.70,1160.75 841.75,1159.35 840.29,1156.78 839.34,1153.04" />
	</edge>
	<edge id=":160_5" function="internal">
		<lane id=":160_5_0" index="0" disallow="tram rail_urban rail rail_electric rail_fast ship" speed="3.65" length="3.23" shape="844.87,1160.34 844.37,1159.60 844.66,1158.76 845.74,1157.80" />
	</edge>
	<edge id=":160_2" function="internal">
		<lane id=":160_2_0" index="0" disallow="tram rail_urban rail rail_electric rail_fast ship" speed="6.49" length="9.03" shape="834.69,1159.43 837.06,1158.71 838.63,1157.40 839.39,1155.51 839.34,1153.04" />
	</edge>
	<edge id=":160_3" function="internal">
		<lane id=":160_3_0" index="0" disallow="tram rail_urban rail rail_electric rail_fast ship" speed="13.89" length="11.17" shape="834.69,1159.43 845.74,1157.80" />
	</edge>
	<edge id=":161_0" function="internal">
		<lane id=":161_0_0" index="0" disallow="tram rail_urban rail rail_electric rail_fast ship" speed="13.89" length="0.29" shape="725.67,1237.54 725.63,1237.25" />
	</edge>
	<edge id=":162_0" function="internal">
		<lane id=":162_0_0" index="0" disallow="tram rail_urban rail rail_electric rail_fast ship" speed="22.22" length="11.20" shape="676.69,1719.93 675.08,1708.84" />
	</edge>
	<edge id=":162_1" function="internal">
		<lane id=":162_1_0" index="0" disallow="tram rail_urban rail rail_electric rail_fast ship" speed="6.49" length="9.04" shape="676.69,1719.93 676.70,1717.44 677.50,1715.56 679.09,1714.29 681.47,1713.62" />
	</edge>
	<edge id=":162_2" function="internal">
		<lane id=":162_2_0" index="0" disallow="tram rail_urban rail rail_electric rail_fast ship" speed="6.54" length="9.01" shape="670.37,1715.22 672.74,1714.48 674.31,1713.17 675.09,1711.29 675.08,1708.84" />
	</edge>
	<edge id=":162_3" function="internal">
		<lane id=":162_3_0" index="0" disallow="tram rail_urban rail rail_electric rail_fast ship" speed="13.89" length="11.21" shape="670.37,1715.22 681.47,1713.62" />
	</edge>
	<edge id=":163_0" function="internal">
		<lane id=":163_0_0" index="0" disallow="tram rail_urban rail rail_electric rail_fast ship" speed="13.89" length="0.10" shape="579.54,1300.33 579.54,1300.33" />
	</edge>
	<edge id=":164_0" function="internal">
		<lane id=":164_0_0" index="0" disallow="tram rail_urban rail rail_electric rail_fast ship" speed="3.90" length="2.58" shape="785.06,1229.79 785.06,1229.09 785.28,1228.55 785.74,1228.18 786.42,1227.99" />
	</edge>
	<edge id=":165_0" function="internal">
		<lane id=":165_0_0" index="0" disallow="tram rail_urban rail rail_electric rail_fast ship" speed="6.52" length="9.00" shape="876.69,1162.50 876.00,1160.13 874.72,1158.54 872.85,1157.74 870.40,1157.72" />
	</edge>
	<edge id=":165_1" function="internal">
		<lane id=":165_1_0" index="0" disallow="tram rail_urban rail rail_electric rail_fast ship" speed="7.32" length="11.67" shape="876.69,1162.50 876.49,1158.66 877.13,1155.80 878.62,1153.92 880.95,1153.03" />
	</edge>
	<edge id=":165_2" function="internal">
		<lane id=":165_2_0" index="0" disallow="tram rail_urban rail rail_electric rail_fast ship" speed="13.89" length="11.12" shape="881.41,1156.19 870.40,1157.72" />
	</edge>
	<edge id=":165_3" function="internal">
		<lane id=":165_3_0" index="0" disallow="tram rail_urban rail rail_electric rail_fast ship" speed="3.65" length="1.44" shape="881.41,1156.19 880.11,1155.58" />
	</edge>
	<edge id=":165_6" function="internal">
		<lane id=":165_6_0" index="0" disallow="tram rail_urban rail rail_electric rail_fast ship" speed="3.65" length="3.23" shape="880.11,1155.58 879.60,1154.84 879.88,1153.99 880.95,1153.03" />
	</edge>
	<edge id=":165_4" function="internal">
		<lane id=":165_4_0" index="0" disallow="tram rail_urban rail rail_electric rail_fast ship" speed="13.89" length="11.08" shape="869.97,1154.55 880.95,1153.03" />
	</edge>
	<edge id=":165_5" function="internal">
		<lane id=":165_5_0" index="0" disallow="tram rail_urban rail rail_electric rail_fast ship" speed="3.65" length="1.44" shape="869.97,1154.55 871.27,1155.18" />
	</edge>
	<edge id=":165_7" function="internal">
		<lane id=":165_7_0" index="0" disallow="tram rail_urban rail rail_electric rail_fast ship" speed="3.65" length="3.23" shape="871.27,1155.18 871.77,1155.92 871.48,1156.76 870.40,1157.72" />
	</edge>
	<edge id=":166_0" function="internal">
		<lane id=":166_0_0" index="0" disallow="tram rail_urban rail rail_electric rail_fast ship" speed="13.89" length="11.10" shape="639.62,1022.26 638.48,1011.22" />
	</edge>
	<edge id=":166_1" function="internal">
		<lane id=":166_1_0" index="0" disallow="tram rail_urban rail rail_electric rail_fast ship" speed="6.53" length="8.96" shape="633.60,1017.42 635.97,1016.75 637.57,1015.50 638.41,1013.65 638.48,1011.22" />
	</edge>
	<edge id=":167_0" function="internal">
		<lane id=":167_0_0" index="0" disallow="tram rail_urban rail rail_electric rail_fast ship" speed="3.90" length="2.58" shape="882.48,1214.41 883.16,1214.22 883.62,1213.85 883.84,1213.31 883.84,1212.60" />
	</edge>
	<edge id=":168_0" function="internal">
		<lane id=":168_0_0" index="0" disallow="tram rail_urban rail rail_electric rail_fast ship" speed="6.52" length="8.96" shape="1117.91,1828.92 1117.21,1826.58 1115.92,1825.02 1114.05,1824.22 1111.58,1824.20" />
	</edge>
	<edge id=":168_1" function="internal">
		<lane id=":168_1_0" index="0" disallow="tram rail_urban rail rail_electric rail_fast ship" speed="13.89" length="11.06" shape="1117.91,1828.92 1116.28,1817.98" />
		<lane id=":168_1_1" index="1" disallow="tram rail_urban rail rail_electric rail_fast ship" speed="13.89" length="11.06" shape="1121.07,1828.45 1119.44,1817.51" />
	</edge>
	<edge id=":169_0" function="internal">
		<lane id=":169_0_0" index="0" disallow="tram rail_urban rail rail_electric rail_fast ship" speed="3.95" length="2.04" shape="699.74,1871.33 699.22,1871.17 698.83,1870.88 698.57,1870.48 698.43,1869.96" />
	</edge>
	<edge id=":171_0" function="internal">
		<lane id=":171_0_0" index="0" disallow="tram rail_urban rail rail_electric rail_fast ship" speed="13.89" length="11.21" shape="543.16,1035.66 542.01,1024.51" />
	</edge>
	<edge id=":171_1" function="internal">
		<lane id=":171_1_0" index="0" disallow="tram rail_urban rail rail_electric rail_fast ship" speed="6.56" length="9.12" shape="543.16,1035.66 543.19,1033.21 544.03,1031.33 545.66,1030.05 548.10,1029.35" />
	</edge>
	<edge id=":172_0" function="internal">
		<lane id=":172_0_0" index="0" disallow="tram rail_urban rail rail_electric rail_fast ship" speed="7.07" length="8.67" shape="684.85,1776.98 684.18,1775.08 682.89,1773.65 680.98,1772.68 678.45,1772.17" />
	</edge>
	<edge id=":172_1" function="internal">
		<lane id=":172_1_0" index="0" disallow="tram rail_urban rail rail_electric rail_fast ship" speed="22.22" length="11.01" shape="684.85,1776.98 683.13,1766.10" />
	</edge>
	<edge id=":173_0" function="internal">
		<lane id=":173_0_0" index="0" disallow="tram rail_urban rail rail_electric rail_fast ship" speed="13.89" length="0.10" shape="556.24,1691.29 556.17,1691.24" />
	</edge>
	<edge id=":174_0" function="internal">
		<lane id=":174_0_0" index="0" disallow="tram rail_urban rail rail_electric rail_fast ship" speed="13.89" length="11.56" shape="970.60,1805.90 962.90,1797.28" />
	</edge>
	<edge id=":174_1" function="internal">
		<lane id=":174_1_0" index="0" disallow="tram rail_urban rail rail_electric rail_fast ship" speed="6.91" length="11.45" shape="970.60,1805.90 969.26,1803.74 969.32,1801.46 970.78,1799.06 973.64,1796.53" />
	</edge>
	<edge id=":174_2" function="internal">
		<lane id=":174_2_0" index="0" disallow="tram rail_urban rail rail_electric rail_fast ship" speed="6.82" length="9.43" shape="965.33,1795.21 967.30,1797.00 969.34,1797.81 971.46,1797.65 973.64,1796.53" />
	</edge>
	<edge id=":174_3" function="internal">
		<lane id=":174_3_0" index="0" disallow="tram rail_urban rail rail_electric rail_fast ship" speed="3.65" length="4.67" shape="965.33,1795.21 965.50,1796.64 965.15,1797.46 964.28,1797.68 962.90,1797.28" />
	</edge>
	<edge id=":174_4" function="internal">
		<lane id=":174_4_0" index="0" disallow="tram rail_urban rail rail_electric rail_fast ship" speed="6.35" length="9.04" shape="961.98,1805.01 963.77,1803.27 964.52,1801.40 964.23,1799.40 962.90,1797.28" />
	</edge>
	<edge id=":174_5" function="internal">
		<lane id=":174_5_0" index="0" disallow="tram rail_urban rail rail_electric rail_fast ship" speed="13.89" length="14.42" shape="961.98,1805.01 973.64,1796.53" />
	</edge>
	<edge id=":175_0" function="internal">
		<lane id=":175_0_0" index="0" disallow="tram rail_urban rail rail_electric rail_fast ship" speed="3.90" length="2.62" shape="595.68,1401.22 594.96,1401.24 594.41,1401.02 594.03,1400.57 593.83,1399.88" />
	</edge>
	<edge id=":176_0" function="internal">
		<lane id=":176_0_0" index="0" disallow="tram rail_urban rail rail_electric rail_fast ship" speed="27.78" length="10.70" shape="841.96,1909.63 831.53,1907.24" />
	</edge>
	<edge id=":176_1" function="internal">
		<lane id=":176_1_0" index="0" disallow="tram rail_urban rail rail_electric rail_fast ship" speed="7.17" length="7.09" shape="841.96,1909.63 839.76,1908.55 838.49,1906.61 838.22,1904.31" />
	</edge>