<?xml version='1.0' encoding='utf-8'?>
<net xmlns:xsi="http://www.w3.org/2001/XMLSchema-instance" version="1.9" junctionCornerDetail="5" limitTurnSpeed="5.50" xsi:noNamespaceSchemaLocation="http://sumo.dlr.de/xsd/net_file.xsd">
	<location netOffset="-336586.08,3754670.31" convBoundary="0.00,12.34,2514.60,2196.77" origBoundary="151.232525,-33.920080,151.266296,-33.899237" projParameter="+proj=utm +zone=56 +ellps=WGS84 +datum=WGS84 +units=m +no_defs" />
	<subgraphs>
		<subgraph id="minimal_similarity_0" from_junction="77" to_junction="357" edges="629,19,394,830,536,62,174,123,752,740,828,44,631,340,403,736,159,905,502,639,549,764,756,8,84,503,508,903,520,906,404,161,525,166,904,510,175,770,747,737,228,584,861,20,908,469,952,735,954,524,829,339,983,523,583,892,827,893,926,506,640,734,682,507,909,916,658,630,118,635,116,124,634,400,907,211,637,673,157,405,887,38,738,863,994,767,826,29,477,294,229,399,509,853,749,638,754,674,410,862,165,615,633,527,212,21,164,996,748,411,295,22,765,504,755,526" />
		<subgraph id="minimal_similarity_1" from_junction="315" to_junction="241" edges="342,430,232,19,563,283,710,472,123,889,988,513,512,828,403,340,941,9,210,538,425,82,742,594,539,117,874,407,875,404,932,831,285,34,525,10,341,611,770,485,209,812,197,771,809,20,332,47,772,524,111,48,897,829,339,810,523,289,827,832,926,708,796,507,333,511,942,587,116,124,12,426,585,1010,113,837,46,709,427,400,569,866,969,284,428,6,887,52,367,811,424,826,54,49,600,380,471,50,399,931,406,331,334,483,890,527,53,21,940,51,599,501,896,382,795,504,805,558,11,526,423" />
		<subgraph id="minimal_similarity_2" from_junction="388" to_junction="87" edges="726,442,759,786,446,44,438,134,631,1023,684,1012,475,230,643,312,133,135,864,798,263,906,248,201,278,310,468,806,722,808,737,440,200,3,584,797,657,981,758,977,876,469,136,115,439,1024,719,241,179,648,1026,642,645,347,557,635,447,630,215,1027,717,634,265,790,559,907,214,656,203,865,307,863,738,997,721,202,716,294,807,727,853,445,787,636,192,1058,760,633,707,441,723,249,854,295,647,978,306,264,644,788" />
		<subgraph id="minimal_similarity_3" from_junction="316" to_junction="241" edges="430,19,563,283,513,505,403,340,595,831,525,478,267,500,591,485,311,197,384,20,524,985,111,48,339,947,793,523,289,55,832,796,333,507,279,511,989,750,56,12,124,376,211,428,751,6,811,29,54,92,484,399,406,334,990,984,286,498,527,212,53,940,107,501,795,526,232,18,123,988,512,941,9,210,65,290,742,425,714,82,923,377,874,407,875,404,285,10,341,516,770,209,812,946,944,809,11,772,964,943,810,708,916,945,942,116,426,585,427,400,284,741,887,52,367,280,769,49,471,50,483,373,915,499,410,890,21,924,262,51,411,22,366,213" />
	</subgraphs>
	<type id="highway.bridleway" priority="1" numLanes="1" speed="2.78" allow="pedestrian" oneway="1" width="2.00" />
	<type id="highway.bus_guideway" priority="1" numLanes="1" speed="27.78" allow="bus" oneway="1" />
	<type id="highway.cycleway" priority="1" numLanes="1" speed="8.33" allow="bicycle" oneway="0" width="1.00" />
	<type id="highway.footway" priority="1" numLanes="1" speed="2.78" allow="pedestrian" oneway="1" width="2.00" />
	<type id="highway.ford" priority="1" numLanes="1" speed="2.78" allow="army" oneway="0" />
	<type id="highway.living_street" priority="2" numLanes="1" speed="2.78" disallow="tram rail_urban rail rail_electric rail_fast ship" oneway="0" />
	<type id="highway.motorway" priority="14" numLanes="2" speed="39.44" allow="private emergency authority army vip passenger hov taxi bus coach delivery truck trailer motorcycle evehicle custom1 custom2" oneway="1" />
	<type id="highway.motorway_link" priority="9" numLanes="1" speed="22.22" allow="private emergency authority army vip passenger hov taxi bus coach delivery truck trailer motorcycle evehicle custom1 custom2" oneway="1" />
	<type id="highway.path" priority="1" numLanes="1" speed="2.78" allow="pedestrian bicycle" oneway="0" width="2.00" />
	<type id="highway.pedestrian" priority="1" numLanes="1" speed="2.78" allow="pedestrian" oneway="1" width="2.00" />
	<type id="highway.primary" priority="12" numLanes="2" speed="27.78" disallow="tram rail_urban rail rail_electric rail_fast ship" oneway="0" />
	<type id="highway.primary_link" priority="7" numLanes="1" speed="22.22" disallow="tram rail_urban rail rail_electric rail_fast ship" oneway="0" />
	<type id="highway.raceway" priority="15" numLanes="2" speed="83.33" allow="vip" oneway="0" />
	<type id="highway.residential" priority="3" numLanes="1" speed="13.89" disallow="tram rail_urban rail rail_electric rail_fast ship" oneway="0" />
	<type id="highway.secondary" priority="11" numLanes="1" speed="27.78" disallow="tram rail_urban rail rail_electric rail_fast ship" oneway="0" />
	<type id="highway.secondary_link" priority="6" numLanes="1" speed="22.22" disallow="tram rail_urban rail rail_electric rail_fast ship" oneway="0" />
	<type id="highway.service" priority="1" numLanes="1" speed="5.56" allow="pedestrian delivery bicycle" oneway="0" />
	<type id="highway.stairs" priority="1" numLanes="1" speed="1.39" allow="pedestrian" oneway="1" width="2.00" />
	<type id="highway.step" priority="1" numLanes="1" speed="1.39" allow="pedestrian" oneway="1" width="2.00" />
	<type id="highway.steps" priority="1" numLanes="1" speed="1.39" allow="pedestrian" oneway="1" width="2.00" />
	<type id="highway.tertiary" priority="10" numLanes="1" speed="22.22" disallow="tram rail_urban rail rail_electric rail_fast ship" oneway="0" />
	<type id="highway.tertiary_link" priority="5" numLanes="1" speed="22.22" disallow="tram rail_urban rail rail_electric rail_fast ship" oneway="0" />
	<type id="highway.track" priority="1" numLanes="1" speed="5.56" allow="pedestrian motorcycle moped bicycle" oneway="0" />
	<type id="highway.trunk" priority="13" numLanes="2" speed="27.78" disallow="pedestrian bicycle tram rail_urban rail rail_electric rail_fast ship" oneway="0" />
	<type id="highway.trunk_link" priority="8" numLanes="1" speed="22.22" disallow="pedestrian bicycle tram rail_urban rail rail_electric rail_fast ship" oneway="0" />
	<type id="highway.unclassified" priority="4" numLanes="1" speed="13.89" disallow="tram rail_urban rail rail_electric rail_fast ship" oneway="0" />
	<type id="highway.unsurfaced" priority="1" numLanes="1" speed="8.33" disallow="tram rail_urban rail rail_electric rail_fast ship" oneway="0" />
	<type id="railway.highspeed" priority="21" numLanes="1" speed="69.44" allow="rail_fast" oneway="1" />
	<type id="railway.light_rail" priority="19" numLanes="1" speed="27.78" allow="rail_urban" oneway="1" />
	<type id="railway.preserved" priority="16" numLanes="1" speed="27.78" allow="rail" oneway="1" />
	<type id="railway.rail" priority="20" numLanes="1" speed="44.44" allow="rail" oneway="1" />
	<type id="railway.subway" priority="18" numLanes="1" speed="27.78" allow="rail_urban" oneway="1" />
	<type id="railway.tram" priority="17" numLanes="1" speed="13.89" allow="tram" oneway="1" />
	<edge id=":1_0" function="internal">
		<lane id=":1_0_0" index="0" disallow="tram rail_urban rail rail_electric rail_fast ship" speed="3.93" length="3.39" shape="1576.08,1031.10 1575.09,1031.15 1574.45,1030.85 1574.16,1030.20 1574.22,1029.21" />
	</edge>
	<edge id=":10_0" function="internal">
		<lane id=":10_0_0" index="0" disallow="tram rail_urban rail rail_electric rail_fast ship" speed="4.43" length="6.48" shape="2087.99,1333.96 2089.93,1332.90 2090.49,1332.03 2089.70,1331.37 2087.54,1330.92" />
	</edge>
	<edge id=":101_0" function="internal">
		<lane id=":101_0_0" index="0" disallow="tram rail_urban rail rail_electric rail_fast ship" speed="22.22" length="11.21" shape="1708.45,592.73 1697.39,594.49" />
	</edge>
	<edge id=":101_1" function="internal">
		<lane id=":101_1_0" index="0" disallow="tram rail_urban rail rail_electric rail_fast ship" speed="6.51" length="9.04" shape="1708.45,592.73 1705.98,592.77 1704.08,592.02 1702.77,590.45 1702.03,588.08" />
	</edge>
	<edge id=":103_0" function="internal">
		<lane id=":103_0_0" index="0" disallow="tram rail_urban rail rail_electric rail_fast ship" speed="3.91" length="2.53" shape="2204.42,247.48 2203.76,247.68 2203.32,248.05 2203.10,248.58 2203.09,249.27" />
	</edge>
	<edge id=":104_0" function="internal">
		<lane id=":104_0_0" index="0" disallow="tram rail_urban rail rail_electric rail_fast ship" speed="6.51" length="9.01" shape="1534.39,391.71 1533.65,389.36 1532.34,387.81 1530.45,387.05 1527.98,387.08" />
	</edge>
	<edge id=":104_1" function="internal">
		<lane id=":104_1_0" index="0" disallow="tram rail_urban rail rail_electric rail_fast ship" speed="13.89" length="11.15" shape="1534.39,391.71 1532.61,380.71" />
	</edge>
	<edge id=":107_0" function="internal">
		<lane id=":107_0_0" index="0" disallow="tram rail_urban rail rail_electric rail_fast ship" speed="13.89" length="0.30" shape="948.66,199.83 948.37,199.89" />
	</edge>
	<edge id=":108_0" function="internal">
		<lane id=":108_0_0" index="0" disallow="tram rail_urban rail rail_electric rail_fast ship" speed="13.89" length="10.68" shape="2321.54,222.48 2323.11,233.04" />
	</edge>
	<edge id=":108_1" function="internal">
		<lane id=":108_1_0" index="0" disallow="tram rail_urban rail rail_electric rail_fast ship" speed="6.57" length="8.75" shape="2321.54,222.48 2321.53,224.82 2320.76,226.65 2319.25,227.97 2316.97,228.78" />
	</edge>
	<edge id=":112_0" function="internal">
		<lane id=":112_0_0" index="0" disallow="tram rail_urban rail rail_electric rail_fast ship" speed="3.90" length="2.61" shape="1405.71,303.30 1405.68,302.59 1405.89,302.04 1406.34,301.66 1407.02,301.44" />
	</edge>
	<edge id=":113_0" function="internal">
		<lane id=":113_0_0" index="0" disallow="tram rail_urban rail rail_electric rail_fast ship" speed="27.78" length="0.30" shape="1489.79,115.20 1489.75,114.90" />
	</edge>
	<edge id=":116_0" function="internal">
		<lane id=":116_0_0" index="0" disallow="tram rail_urban rail rail_electric rail_fast ship" speed="13.89" length="0.29" shape="444.08,626.20 444.03,625.92" />
	</edge>
	<edge id=":117_0" function="internal">
		<lane id=":117_0_0" index="0" disallow="tram rail_urban rail rail_electric rail_fast ship" speed="6.37" length="9.04" shape="1470.06,644.17 1469.31,641.78 1467.98,640.26 1466.07,639.60 1463.58,639.81" />
	</edge>
	<edge id=":117_1" function="internal">
		<lane id=":117_1_0" index="0" disallow="tram rail_urban rail rail_electric rail_fast ship" speed="27.78" length="11.45" shape="1474.72,637.17 1463.58,639.81" />
	</edge>
	<edge id=":120_0" function="internal">
		<lane id=":120_0_0" index="0" disallow="tram rail_urban rail rail_electric rail_fast ship" speed="13.89" length="8.56" shape="1990.01,719.08 1983.22,713.87" />
	</edge>
	<edge id=":120_1" function="internal">
		<lane id=":120_1_0" index="0" disallow="tram rail_urban rail rail_electric rail_fast ship" speed="11.68" length="8.54" shape="1991.35,715.36 1988.80,715.42 1986.96,715.50 1985.29,715.15 1983.22,713.87" />
	</edge>
	<edge id=":122_0" function="internal">
		<lane id=":122_0_0" index="0" disallow="tram rail_urban rail rail_electric rail_fast ship" speed="3.91" length="2.52" shape="2211.73,313.54 2211.72,314.22 2211.50,314.75 2211.06,315.12 2210.41,315.33" />
	</edge>
	<edge id=":124_0" function="internal">
		<lane id=":124_0_0" index="0" disallow="tram rail_urban rail rail_electric rail_fast ship" speed="27.78" length="0.30" shape="1389.74,676.37 1389.49,676.53" />
	</edge>
	<edge id=":127_0" function="internal">
		<lane id=":127_0_0" index="0" disallow="tram rail_urban rail rail_electric rail_fast ship" speed="20.84" length="11.22" shape="1529.55,361.73 1527.80,350.65" />
	</edge>
	<edge id=":127_1" function="internal">
		<lane id=":127_1_0" index="0" disallow="tram rail_urban rail rail_electric rail_fast ship" speed="6.49" length="9.04" shape="1534.19,355.32 1531.71,355.36 1529.82,354.59 1528.52,353.03 1527.80,350.65" />
	</edge>
	<edge id=":129_0" function="internal">
		<lane id=":129_0_0" index="0" disallow="tram rail_urban rail rail_electric rail_fast ship" speed="22.22" length="0.18" shape="1916.45,1532.35 1916.31,1532.23" />
	</edge>
	<edge id=":130_0" function="internal">
		<lane id=":130_0_0" index="0" disallow="tram rail_urban rail rail_electric rail_fast ship" speed="13.89" length="0.47" shape="1836.38,1084.39 1836.30,1084.51 1836.24,1084.58 1836.17,1084.65 1836.07,1084.74" />
	</edge>
	<edge id=":132_0" function="internal">
		<lane id=":132_0_0" index="0" disallow="tram rail_urban rail rail_electric rail_fast ship" speed="6.34" length="9.04" shape="1767.78,1123.92 1767.04,1121.53 1765.71,1120.01 1763.80,1119.37 1761.31,1119.61" />
	</edge>
	<edge id=":132_1" function="internal">
		<lane id=":132_1_0" index="0" disallow="tram rail_urban rail rail_electric rail_fast ship" speed="27.78" length="14.42" shape="1767.78,1123.92 1765.53,1109.68" />
	</edge>
	<edge id=":132_2" function="internal">
		<lane id=":132_2_0" index="0" disallow="tram rail_urban rail rail_electric rail_fast ship" speed="15.28" length="11.71" shape="1772.50,1116.22 1769.49,1117.40 1766.99,1118.20 1764.46,1118.86 1761.31,1119.61" />
	</edge>
	<edge id=":132_3" function="internal">
		<lane id=":132_3_0" index="0" disallow="tram rail_urban rail rail_electric rail_fast ship" speed="6.70" length="7.05" shape="1772.50,1116.22 1769.97,1116.69 1767.97,1115.75 1766.75,1113.83" />
	</edge>
	<edge id=":132_6" function="internal">
		<lane id=":132_6_0" index="0" disallow="tram rail_urban rail rail_electric rail_fast ship" speed="6.70" length="4.35" shape="1766.75,1113.83 1766.49,1113.42 1765.53,1109.68" />
	</edge>
	<edge id=":132_4" function="internal">
		<lane id=":132_4_0" index="0" disallow="tram rail_urban rail rail_electric rail_fast ship" speed="6.84" length="9.46" shape="1760.55,1116.51 1763.05,1115.55 1764.71,1114.09 1765.54,1112.13 1765.53,1109.68" />
	</edge>
	<edge id=":132_5" function="internal">
		<lane id=":132_5_0" index="0" disallow="tram rail_urban rail rail_electric rail_fast ship" speed="3.65" length="1.44" shape="1760.55,1116.51 1761.90,1117.00" />
	</edge>
	<edge id=":132_7" function="internal">
		<lane id=":132_7_0" index="0" disallow="tram rail_urban rail rail_electric rail_fast ship" speed="3.65" length="3.23" shape="1761.90,1117.00 1762.48,1117.68 1762.28,1118.55 1761.31,1119.61" />
	</edge>
	<edge id=":133_0" function="internal">
		<lane id=":133_0_0" index="0" disallow="tram rail_urban rail rail_electric rail_fast ship" speed="6.24" length="9.05" shape="1930.07,976.34 1929.35,973.92 1928.03,972.42 1926.12,971.84 1923.62,972.18" />
	</edge>
	<edge id=":133_1" function="internal">
		<lane id=":133_1_0" index="0" disallow="tram rail_urban rail rail_electric rail_fast ship" speed="7.46" length="12.11" shape="1930.07,976.34 1929.82,972.29 1930.44,969.27 1931.90,967.29 1934.22,966.35" />
	</edge>
	<edge id=":133_2" function="internal">
		<lane id=":133_2_0" index="0" disallow="tram rail_urban rail rail_electric rail_fast ship" speed="13.89" length="11.42" shape="1934.71,969.51 1931.57,970.06 1929.12,970.62 1926.69,971.29 1923.62,972.18" />
	</edge>
	<edge id=":133_3" function="internal">
		<lane id=":133_3_0" index="0" disallow="tram rail_urban rail rail_electric rail_fast ship" speed="3.65" length="4.67" shape="1934.71,969.51 1933.40,968.90 1932.88,968.18 1933.16,967.32 1934.22,966.35" />
	</edge>
	<edge id=":134_0" function="internal">
		<lane id=":134_0_0" index="0" disallow="tram rail_urban rail rail_electric rail_fast ship" speed="18.05" length="5.19" shape="2070.65,1329.19 2069.59,1330.29 2068.76,1330.93 2067.82,1331.45 2066.48,1332.20" />
	</edge>
	<edge id=":136_0" function="internal">
		<lane id=":136_0_0" index="0" disallow="tram rail_urban rail rail_electric rail_fast ship" speed="22.23" length="0.10" shape="1762.63,1090.74 1762.64,1090.82" />
	</edge>
	<edge id=":137_0" function="internal">
		<lane id=":137_0_0" index="0" disallow="tram rail_urban rail rail_electric rail_fast ship" speed="13.89" length="0.30" shape="1722.94,1446.81 1722.65,1446.82" />
	</edge>
	<edge id=":139_0" function="internal">
		<lane id=":139_0_0" index="0" disallow="tram rail_urban rail rail_electric rail_fast ship" speed="22.22" length="11.33" shape="1977.89,1677.05 1976.07,1665.87" />
	</edge>
	<edge id=":139_1" function="internal">
		<lane id=":139_1_0" index="0" disallow="tram rail_urban rail rail_electric rail_fast ship" speed="6.47" length="9.03" shape="1971.29,1672.15 1973.68,1671.49 1975.28,1670.22 1976.07,1668.35 1976.07,1665.87" />
	</edge>
	<edge id=":141_0" function="internal">
		<lane id=":141_0_0" index="0" disallow="tram rail_urban rail rail_electric rail_fast ship" speed="5.69" length="2.88" shape="2080.44,1329.54 2080.21,1328.90 2080.27,1328.21 2080.48,1327.49 2080.69,1326.76" />
	</edge>
	<edge id=":142_0" function="internal">
		<lane id=":142_0_0" index="0" disallow="tram rail_urban rail rail_electric rail_fast ship" speed="22.22" length="0.98" shape="2073.05,1337.44 2072.14,1337.82" />
	</edge>
	<edge id=":143_0" function="internal">
		<lane id=":143_0_0" index="0" disallow="tram rail_urban rail rail_electric rail_fast ship" speed="11.11" length="0.29" shape="2005.71,1478.34 2005.84,1478.07" />
	</edge>
	<edge id=":144_0" function="internal">
		<lane id=":144_0_0" index="0" disallow="tram rail_urban rail rail_electric rail_fast ship" speed="7.66" length="6.85" shape="1958.97,1189.46 1959.84,1188.31 1960.38,1186.85 1960.57,1185.09 1960.41,1183.02" />
	</edge>
	<edge id=":144_1" function="internal">
		<lane id=":144_1_0" index="0" disallow="tram rail_urban rail rail_electric rail_fast ship" speed="13.89" length="7.03" shape="1958.97,1189.46 1960.47,1188.02 1961.58,1187.09 1962.83,1186.41 1964.77,1185.69" />
	</edge>
	<edge id=":145_0" function="internal">
		<lane id=":145_0_0" index="0" disallow="tram rail_urban rail rail_electric rail_fast ship" speed="13.89" length="0.30" shape="1866.35,1370.41 1866.06,1370.45" />
	</edge>
	<edge id=":145_1" function="internal">
		<lane id=":145_1_0" index="0" disallow="tram rail_urban rail rail_electric rail_fast ship" speed="3.65" length="2.34" shape="1866.35,1370.41 1865.04,1369.80 1864.52,1369.08" />
	</edge>
	<edge id=":145_4" function="internal">
		<lane id=":145_4_0" index="0" disallow="tram rail_urban rail rail_electric rail_fast ship" speed="3.65" length="2.34" shape="1864.52,1369.08 1864.79,1368.22 1865.85,1367.25" />
	</edge>
	<edge id=":145_2" function="internal">
		<lane id=":145_2_0" index="0" disallow="tram rail_urban rail rail_electric rail_fast ship" speed="13.89" length="0.30" shape="1865.55,1367.29 1865.85,1367.25" />
	</edge>
	<edge id=":145_3" function="internal">
		<lane id=":145_3_0" index="0" disallow="tram rail_urban rail rail_electric rail_fast ship" speed="3.65" length="2.34" shape="1865.55,1367.29 1866.86,1367.89 1867.38,1368.62" />
	</edge>
	<edge id=":145_5" function="internal">
		<lane id=":145_5_0" index="0" disallow="tram rail_urban rail rail_electric rail_fast ship" speed="3.65" length="2.34" shape="1867.38,1368.62 1867.11,1369.47 1866.06,1370.45" />
	</edge>
	<edge id=":146_0" function="internal">
		<lane id=":146_0_0" index="0" disallow="tram rail_urban rail rail_electric rail_fast ship" speed="13.89" length="11.20" shape="1979.14,1352.32 1968.08,1354.09" />
	</edge>
	<edge id=":146_1" function="internal">
		<lane id=":146_1_0" index="0" disallow="tram rail_urban rail rail_electric rail_fast ship" speed="7.34" length="2.50" shape="1979.14,1352.32 1976.64,1352.16" />
	</edge>
	<edge id=":146_2" function="internal">
		<lane id=":146_2_0" index="0" disallow="tram rail_urban rail rail_electric rail_fast ship" speed="3.65" length="1.44" shape="1979.14,1352.32 1977.83,1351.72" />
	</edge>
	<edge id=":146_6" function="internal">
		<lane id=":146_6_0" index="0" disallow="tram rail_urban rail rail_electric rail_fast ship" speed="7.34" length="9.23" shape="1976.64,1352.16 1974.65,1350.81 1973.17,1348.26 1972.20,1344.51" />
	</edge>
	<edge id=":146_7" function="internal">
		<lane id=":146_7_0" index="0" disallow="tram rail_urban rail rail_electric rail_fast ship" speed="3.65" length="3.23" shape="1977.83,1351.72 1977.31,1350.99 1977.57,1350.14 1978.63,1349.16" />
	</edge>
	<edge id=":146_3" function="internal">
		<lane id=":146_3_0" index="0" disallow="tram rail_urban rail rail_electric rail_fast ship" speed="6.50" length="9.03" shape="1967.57,1350.93 1969.94,1350.20 1971.50,1348.88 1972.25,1346.99 1972.20,1344.51" />
	</edge>
	<edge id=":146_4" function="internal">
		<lane id=":146_4_0" index="0" disallow="tram rail_urban rail rail_electric rail_fast ship" speed="13.89" length="11.20" shape="1967.57,1350.93 1978.63,1349.16" />
	</edge>
	<edge id=":146_5" function="internal">
		<lane id=":146_5_0" index="0" disallow="tram rail_urban rail rail_electric rail_fast ship" speed="3.65" length="1.44" shape="1967.57,1350.93 1968.89,1351.53" />
	</edge>
	<edge id=":146_8" function="internal">
		<lane id=":146_8_0" index="0" disallow="tram rail_urban rail rail_electric rail_fast ship" speed="3.65" length="3.23" shape="1968.89,1351.53 1969.41,1352.26 1969.14,1353.11 1968.08,1354.09" />
	</edge>
	<edge id=":148_0" function="internal">
		<lane id=":148_0_0" index="0" disallow="tram rail_urban rail rail_electric rail_fast ship" speed="13.89" length="0.22" shape="1768.85,1445.38 1768.63,1445.38" />
	</edge>
	<edge id=":152_0" function="internal">
		<lane id=":152_0_0" index="0" disallow="tram rail_urban rail rail_electric rail_fast ship" speed="13.89" length="11.18" shape="356.83,1065.68 355.22,1054.61" />
	</edge>
	<edge id=":152_1" function="internal">
		<lane id=":152_1_0" index="0" disallow="tram rail_urban rail rail_electric rail_fast ship" speed="6.51" length="4.10" shape="361.56,1059.35 359.09,1059.35 357.59,1058.72" />
	</edge>
	<edge id=":152_2" function="internal">
		<lane id=":152_2_0" index="0" disallow="tram rail_urban rail rail_electric rail_fast ship" speed="6.51" length="4.92" shape="357.59,1058.72 357.21,1058.56 355.92,1056.98 355.22,1054.61" />
	</edge>
	<edge id=":153_0" function="internal">
		<lane id=":153_0_0" index="0" disallow="tram rail_urban rail rail_electric rail_fast ship" speed="13.89" length="0.10" shape="512.18,1661.23 512.18,1661.23" />
	</edge>
	<edge id=":155_0" function="internal">
		<lane id=":155_0_0" index="0" disallow="tram rail_urban rail rail_electric rail_fast ship" speed="15.28" length="0.30" shape="581.01,1198.51 580.72,1198.55" />
	</edge>
	<edge id=":156_0" function="internal">
		<lane id=":156_0_0" index="0" disallow="tram rail_urban rail rail_electric rail_fast ship" speed="13.89" length="11.20" shape="794.51,1702.98 792.85,1691.91" />
	</edge>
	<edge id=":156_1" function="internal">
		<lane id=":156_1_0" index="0" disallow="tram rail_urban rail rail_electric rail_fast ship" speed="3.65" length="1.23" shape="794.51,1702.98 795.03,1701.86" />
	</edge>
	<edge id=":156_4" function="internal">
		<lane id=":156_4_0" index="0" disallow="tram rail_urban rail rail_electric rail_fast ship" speed="3.65" length="3.44" shape="795.03,1701.86 795.12,1701.68 795.86,1701.16 796.71,1701.44 797.67,1702.51" />
	</edge>
	<edge id=":156_2" function="internal">
		<lane id=":156_2_0" index="0" disallow="tram rail_urban rail rail_electric rail_fast ship" speed="6.51" length="9.03" shape="788.14,1698.27 790.51,1697.56 792.09,1696.27 792.87,1694.38 792.85,1691.91" />
	</edge>
	<edge id=":156_3" function="internal">
		<lane id=":156_3_0" index="0" disallow="tram rail_urban rail rail_electric rail_fast ship" speed="7.33" length="11.73" shape="788.14,1698.27 792.00,1698.05 794.88,1698.68 796.77,1700.17 797.67,1702.51" />
	</edge>
	<edge id=":157_0" function="internal">
		<lane id=":157_0_0" index="0" disallow="tram rail_urban rail rail_electric rail_fast ship" speed="13.89" length="0.10" shape="393.73,1325.58 393.73,1325.58" />
	</edge>
	<edge id=":160_0" function="internal">
		<lane id=":160_0_0" index="0" disallow="tram rail_urban rail rail_electric rail_fast ship" speed="13.89" length="11.22" shape="846.28,1160.96 835.18,1162.60" />
	</edge>
	<edge id=":160_1" function="internal">
		<lane id=":160_1_0" index="0" disallow="tram rail_urban rail rail_electric rail_fast ship" speed="7.41" length="2.52" shape="846.28,1160.96 843.77,1160.74" />
	</edge>
	<edge id=":160_2" function="internal">
		<lane id=":160_2_0" index="0" disallow="tram rail_urban rail rail_electric rail_fast ship" speed="3.65" length="1.44" shape="846.28,1160.96 844.98,1160.33" />
	</edge>
	<edge id=":160_6" function="internal">
		<lane id=":160_6_0" index="0" disallow="tram rail_urban rail rail_electric rail_fast ship" speed="7.41" length="9.26" shape="843.77,1160.74 841.77,1159.35 840.30,1156.78 839.34,1153.04" />
	</edge>
	<edge id=":160_7" function="internal">
		<lane id=":160_7_0" index="0" disallow="tram rail_urban rail rail_electric rail_fast ship" speed="3.65" length="3.23" shape="844.98,1160.33 844.48,1159.59 844.77,1158.74 845.85,1157.79" />
	</edge>
	<edge id=":160_3" function="internal">
		<lane id=":160_3_0" index="0" disallow="tram rail_urban rail rail_electric rail_fast ship" speed="6.49" length="9.03" shape="834.69,1159.43 837.06,1158.71 838.63,1157.40 839.39,1155.51 839.34,1153.04" />
	</edge>
	<edge id=":160_4" function="internal">
		<lane id=":160_4_0" index="0" disallow="tram rail_urban rail rail_electric rail_fast ship" speed="13.89" length="11.28" shape="834.69,1159.43 845.85,1157.79" />
	</edge>
	<edge id=":160_5" function="internal">
		<lane id=":160_5_0" index="0" disallow="tram rail_urban rail rail_electric rail_fast ship" speed="3.65" length="1.44" shape="834.69,1159.43 836.00,1160.04" />
	</edge>
	<edge id=":160_8" function="internal">
		<lane id=":160_8_0" index="0" disallow="tram rail_urban rail rail_electric rail_fast ship" speed="3.65" length="3.23" shape="836.00,1160.04 836.52,1160.77 836.24,1161.62 835.18,1162.60" />
	</edge>
	<edge id=":161_0" function="internal">
		<lane id=":161_0_0" index="0" disallow="tram rail_urban rail rail_electric rail_fast ship" speed="13.89" length="11.06" shape="726.78,1244.44 725.07,1233.51" />
	</edge>
	<edge id=":161_1" function="internal">
		<lane id=":161_1_0" index="0" disallow="tram rail_urban rail rail_electric rail_fast ship" speed="6.54" length="8.99" shape="731.42,1238.23 728.95,1238.20 727.06,1237.40 725.77,1235.84 725.07,1233.51" />
	</edge>
	<edge id=":162_0" function="internal">
		<lane id=":162_0_0" index="0" disallow="tram rail_urban rail rail_electric rail_fast ship" speed="22.22" length="11.20" shape="676.69,1719.93 675.08,1708.84" />
	</edge>
	<edge id=":162_1" function="internal">
		<lane id=":162_1_0" index="0" disallow="tram rail_urban rail rail_electric rail_fast ship" speed="6.49" length="9.04" shape="676.69,1719.93 676.70,1717.44 677.50,1715.56 679.09,1714.29 681.47,1713.62" />
	</edge>
	<edge id=":162_2" function="internal">
		<lane id=":162_2_0" index="0" disallow="tram rail_urban rail rail_electric rail_fast ship" speed="6.54" length="9.01" shape="670.37,1715.22 672.74,1714.48 674.31,1713.17 675.09,1711.29 675.08,1708.84" />
	</edge>
	<edge id=":162_3" function="internal">
		<lane id=":162_3_0" index="0" disallow="tram rail_urban rail rail_electric rail_fast ship" speed="13.89" length="11.21" shape="670.37,1715.22 681.47,1713.62" />
	</edge>
	<edge id=":163_0" function="internal">
		<lane id=":163_0_0" index="0" disallow="tram rail_urban rail rail_electric rail_fast ship" speed="13.89" length="0.10" shape="579.54,1300.33 579.54,1300.33" />
	</edge>
	<edge id=":164_0" function="internal">
		<lane id=":164_0_0" index="0" disallow="tram rail_urban rail rail_electric rail_fast ship" speed="3.90" length="2.55" shape="785.50,1232.92 785.30,1232.25 784.94,1231.80 784.41,1231.57 783.71,1231.56" />
	</edge>
	<edge id=":165_0" function="internal">
		<lane id=":165_0_0" index="0" disallow="tram rail_urban rail rail_electric rail_fast ship" speed="6.52" length="9.00" shape="876.69,1162.50 876.00,1160.13 874.72,1158.54 872.85,1157.74 870.40,1157.72" />
	</edge>
	<edge id=":165_1" function="internal">
		<lane id=":165_1_0" index="0" disallow="tram rail_urban rail rail_electric rail_fast ship" speed="7.32" length="11.67" shape="876.69,1162.50 876.49,1158.66 877.13,1155.80 878.62,1153.92 880.95,1153.03" />
	</edge>
	<edge id=":165_2" function="internal">
		<lane id=":165_2_0" index="0" disallow="tram rail_urban rail rail_electric rail_fast ship" speed="13.89" length="11.12" shape="881.41,1156.19 870.40,1157.72" />
	</edge>
	<edge id=":165_3" function="internal">
		<lane id=":165_3_0" index="0" disallow="tram rail_urban rail rail_electric rail_fast ship" speed="3.65" length="1.44" shape="881.41,1156.19 880.11,1155.58" />
	</edge>
	<edge id=":165_6" function="internal">
		<lane id=":165_6_0" index="0" disallow="tram rail_urban rail rail_electric rail_fast ship" speed="3.65" length="3.23" shape="880.11,1155.58 879.60,1154.84 879.88,1153.99 880.95,1153.03" />
	</edge>
	<edge id=":165_4" function="internal">
		<lane id=":165_4_0" index="0" disallow="tram rail_urban rail rail_electric rail_fast ship" speed="13.89" length="11.08" shape="869.97,1154.55 880.95,1153.03" />
	</edge>
	<edge id=":165_5" function="internal">
		<lane id=":165_5_0" index="0" disallow="tram rail_urban rail rail_electric rail_fast ship" speed="3.65" length="1.44" shape="869.97,1154.55 871.27,1155.18" />
	</edge>
	<edge id=":165_7" function="internal">
		<lane id=":165_7_0" index="0" disallow="tram rail_urban rail rail_electric rail_fast ship" speed="3.65" length="3.23" shape="871.27,1155.18 871.77,1155.92 871.48,1156.76 870.40,1157.72" />
	</edge>
	<edge id=":166_0" function="internal">
		<lane id=":166_0_0" index="0" disallow="tram rail_urban rail rail_electric rail_fast ship" speed="6.39" length="9.04" shape="639.88,1025.53 639.33,1023.10 638.13,1021.47 636.28,1020.64 633.78,1020.62" />
	</edge>
	<edge id=":166_1" function="internal">
		<lane id=":166_1_0" index="0" disallow="tram rail_urban rail rail_electric rail_fast ship" speed="13.89" length="11.32" shape="639.88,1025.53 638.83,1014.26" />
	</edge>
	<edge id=":166_2" function="internal">