<?xml version='1.0' encoding='utf-8'?>
<net xmlns:xsi="http://www.w3.org/2001/XMLSchema-instance" version="1.9" junctionCornerDetail="5" limitTurnSpeed="5.50" xsi:noNamespaceSchemaLocation="http://sumo.dlr.de/xsd/net_file.xsd">
	<location netOffset="-336586.08,3754670.31" convBoundary="0.00,12.34,2397.89,2196.77" origBoundary="151.232525,-33.920080,151.266296,-33.899237" projParameter="+proj=utm +zone=56 +ellps=WGS84 +datum=WGS84 +units=m +no_defs" />
	<subgraphs>
		<subgraph id="average_similarity_0" from_junction="77" to_junction="357" edges="342,629,19,62,174,123,752,740,505,828,631,340,44,403,159,639,549,8,903,508,503,670,906,671,404,161,166,510,175,770,747,584,861,20,908,954,829,339,827,892,893,506,640,507,909,635,630,658,587,124,634,559,400,969,907,211,637,673,768,38,738,863,307,767,1009,399,509,853,749,638,674,410,862,165,633,212,21,164,996,748,411,306,213" />
		<subgraph id="average_similarity_1" from_junction="315" to_junction="241" edges="342,232,19,563,283,710,123,472,988,513,403,340,941,9,595,538,508,425,594,377,874,407,875,404,831,285,525,10,641,341,611,591,770,485,209,812,197,515,771,20,332,47,772,535,829,897,339,810,55,832,708,796,333,507,937,942,587,124,56,426,1010,12,763,709,427,400,609,969,284,428,6,52,367,811,769,54,471,399,959,931,331,334,483,890,527,53,21,940,51,501,382,896,795,504,805,558,11,526,46" />
		<subgraph id="average_similarity_2" from_junction="388" to_junction="87" edges="726,725,144,180,759,446,44,631,1023,1012,643,312,619,864,798,248,201,278,310,468,806,808,747,200,584,797,981,758,977,876,469,699,1024,719,1026,216,645,557,635,630,447,215,1027,717,217,634,265,214,203,865,307,863,189,997,571,721,202,716,294,807,727,853,749,445,787,636,1058,760,633,707,249,723,854,748,295,647,978,264,644,788" />
		<subgraph id="average_similarity_3" from_junction="316" to_junction="241" edges="19,563,283,513,505,403,5,340,595,538,508,831,525,267,500,591,485,197,515,311,20,985,339,55,289,926,832,796,333,507,279,511,989,587,124,12,1010,56,609,376,211,934,428,6,811,935,54,92,399,484,406,229,334,990,984,286,527,212,53,940,107,501,795,526,423,342,232,123,988,512,941,213,9,65,290,425,742,714,377,407,874,875,404,285,10,641,341,770,209,812,944,946,535,943,708,945,942,426,427,969,400,284,391,887,52,367,424,280,769,250,471,959,928,483,410,890,21,262,51,411,504,11" />
	</subgraphs>
	<type id="highway.bridleway" priority="1" numLanes="1" speed="2.78" allow="pedestrian" oneway="1" width="2.00" />
	<type id="highway.bus_guideway" priority="1" numLanes="1" speed="27.78" allow="bus" oneway="1" />
	<type id="highway.cycleway" priority="1" numLanes="1" speed="8.33" allow="bicycle" oneway="0" width="1.00" />
	<type id="highway.footway" priority="1" numLanes="1" speed="2.78" allow="pedestrian" oneway="1" width="2.00" />
	<type id="highway.ford" priority="1" numLanes="1" speed="2.78" allow="army" oneway="0" />
	<type id="highway.living_street" priority="2" numLanes="1" speed="2.78" disallow="tram rail_urban rail rail_electric rail_fast ship" oneway="0" />
	<type id="highway.motorway" priority="14" numLanes="2" speed="39.44" allow="private emergency authority army vip passenger hov taxi bus coach delivery truck trailer motorcycle evehicle custom1 custom2" oneway="1" />
	<type id="highway.motorway_link" priority="9" numLanes="1" speed="22.22" allow="private emergency authority army vip passenger hov taxi bus coach delivery truck trailer motorcycle evehicle custom1 custom2" oneway="1" />
	<type id="highway.path" priority="1" numLanes="1" speed="2.78" allow="pedestrian bicycle" oneway="0" width="2.00" />
	<type id="highway.pedestrian" priority="1" numLanes="1" speed="2.78" allow="pedestrian" oneway="1" width="2.00" />
	<type id="highway.primary" priority="12" numLanes="2" speed="27.78" disallow="tram rail_urban rail rail_electric rail_fast ship" oneway="0" />
	<type id="highway.primary_link" priority="7" numLanes="1" speed="22.22" disallow="tram rail_urban rail rail_electric rail_fast ship" oneway="0" />
	<type id="highway.raceway" priority="15" numLanes="2" speed="83.33" allow="vip" oneway="0" />
	<type id="highway.residential" priority="3" numLanes="1" speed="13.89" disallow="tram rail_urban rail rail_electric rail_fast ship" oneway="0" />
	<type id="highway.secondary" priority="11" numLanes="1" speed="27.78" disallow="tram rail_urban rail rail_electric rail_fast ship" oneway="0" />
	<type id="highway.secondary_link" priority="6" numLanes="1" speed="22.22" disallow="tram rail_urban rail rail_electric rail_fast ship" oneway="0" />
	<type id="highway.service" priority="1" numLanes="1" speed="5.56" allow="pedestrian delivery bicycle" oneway="0" />
	<type id="highway.stairs" priority="1" numLanes="1" speed="1.39" allow="pedestrian" oneway="1" width="2.00" />
	<type id="highway.step" priority="1" numLanes="1" speed="1.39" allow="pedestrian" oneway="1" width="2.00" />
	<type id="highway.steps" priority="1" numLanes="1" speed="1.39" allow="pedestrian" oneway="1" width="2.00" />
	<type id="highway.tertiary" priority="10" numLanes="1" speed="22.22" disallow="tram rail_urban rail rail_electric rail_fast ship" oneway="0" />
	<type id="highway.tertiary_link" priority="5" numLanes="1" speed="22.22" disallow="tram rail_urban rail rail_electric rail_fast ship" oneway="0" />
	<type id="highway.track" priority="1" numLanes="1" speed="5.56" allow="pedestrian motorcycle moped bicycle" oneway="0" />
	<type id="highway.trunk" priority="13" numLanes="2" speed="27.78" disallow="pedestrian bicycle tram rail_urban rail rail_electric rail_fast ship" oneway="0" />
	<type id="highway.trunk_link" priority="8" numLanes="1" speed="22.22" disallow="pedestrian bicycle tram rail_urban rail rail_electric rail_fast ship" oneway="0" />
	<type id="highway.unclassified" priority="4" numLanes="1" speed="13.89" disallow="tram rail_urban rail rail_electric rail_fast ship" oneway="0" />
	<type id="highway.unsurfaced" priority="1" numLanes="1" speed="8.33" disallow="tram rail_urban rail rail_electric rail_fast ship" oneway="0" />
	<type id="railway.highspeed" priority="21" numLanes="1" speed="69.44" allow="rail_fast" oneway="1" />
	<type id="railway.light_rail" priority="19" numLanes="1" speed="27.78" allow="rail_urban" oneway="1" />
	<type id="railway.preserved" priority="16" numLanes="1" speed="27.78" allow="rail" oneway="1" />
	<type id="railway.rail" priority="20" numLanes="1" speed="44.44" allow="rail" oneway="1" />
	<type id="railway.subway" priority="18" numLanes="1" speed="27.78" allow="rail_urban" oneway="1" />
	<type id="railway.tram" priority="17" numLanes="1" speed="13.89" allow="tram" oneway="1" />
	<edge id=":10_0" function="internal">
		<lane id=":10_0_0" index="0" disallow="tram rail_urban rail rail_electric rail_fast ship" speed="4.43" length="6.48" shape="2087.99,1333.96 2089.93,1332.90 2090.49,1332.03 2089.70,1331.37 2087.54,1330.92" />
	</edge>
	<edge id=":101_0" function="internal">
		<lane id=":101_0_0" index="0" disallow="tram rail_urban rail rail_electric rail_fast ship" speed="22.22" length="0.30" shape="1704.65,593.35 1704.35,593.39" />
	</edge>
	<edge id=":103_0" function="internal">
		<lane id=":103_0_0" index="0" disallow="tram rail_urban rail rail_electric rail_fast ship" speed="3.91" length="2.53" shape="2204.42,247.48 2203.76,247.68 2203.32,248.05 2203.10,248.58 2203.09,249.27" />
	</edge>
	<edge id=":104_0" function="internal">
		<lane id=":104_0_0" index="0" disallow="tram rail_urban rail rail_electric rail_fast ship" speed="13.89" length="11.20" shape="1533.88,388.58 1532.09,377.52" />
	</edge>
	<edge id=":104_1" function="internal">
		<lane id=":104_1_0" index="0" disallow="tram rail_urban rail rail_electric rail_fast ship" speed="6.50" length="9.03" shape="1527.44,383.92 1529.81,383.20 1531.38,381.89 1532.14,380.00 1532.09,377.52" />
	</edge>
	<edge id=":108_0" function="internal">
		<lane id=":108_0_0" index="0" disallow="tram rail_urban rail rail_electric rail_fast ship" speed="13.89" length="10.68" shape="2321.54,222.48 2323.11,233.04" />
	</edge>
	<edge id=":108_1" function="internal">
		<lane id=":108_1_0" index="0" disallow="tram rail_urban rail rail_electric rail_fast ship" speed="6.57" length="8.75" shape="2321.54,222.48 2321.53,224.82 2320.76,226.65 2319.25,227.97 2316.97,228.78" />
	</edge>
	<edge id=":112_0" function="internal">
		<lane id=":112_0_0" index="0" disallow="tram rail_urban rail rail_electric rail_fast ship" speed="3.90" length="2.61" shape="1405.71,303.30 1405.68,302.59 1405.89,302.04 1406.34,301.66 1407.02,301.44" />
	</edge>
	<edge id=":113_0" function="internal">
		<lane id=":113_0_0" index="0" disallow="tram rail_urban rail rail_electric rail_fast ship" speed="27.78" length="0.30" shape="1489.79,115.20 1489.75,114.90" />
	</edge>
	<edge id=":116_0" function="internal">
		<lane id=":116_0_0" index="0" disallow="tram rail_urban rail rail_electric rail_fast ship" speed="13.89" length="0.29" shape="444.08,626.20 444.03,625.92" />
	</edge>
	<edge id=":117_0" function="internal">
		<lane id=":117_0_0" index="0" disallow="tram rail_urban rail rail_electric rail_fast ship" speed="6.37" length="9.04" shape="1470.06,644.17 1469.31,641.78 1467.98,640.26 1466.07,639.60 1463.58,639.81" />
	</edge>
	<edge id=":117_1" function="internal">
		<lane id=":117_1_0" index="0" disallow="tram rail_urban rail rail_electric rail_fast ship" speed="27.78" length="11.45" shape="1474.72,637.17 1463.58,639.81" />
	</edge>
	<edge id=":120_0" function="internal">
		<lane id=":120_0_0" index="0" disallow="tram rail_urban rail rail_electric rail_fast ship" speed="13.89" length="0.30" shape="1986.71,716.57 1986.48,716.39" />
	</edge>
	<edge id=":122_0" function="internal">
		<lane id=":122_0_0" index="0" disallow="tram rail_urban rail rail_electric rail_fast ship" speed="3.91" length="2.52" shape="2211.73,313.54 2211.72,314.22 2211.50,314.75 2211.06,315.12 2210.41,315.33" />
	</edge>
	<edge id=":124_0" function="internal">
		<lane id=":124_0_0" index="0" disallow="tram rail_urban rail rail_electric rail_fast ship" speed="27.78" length="0.30" shape="1389.74,676.37 1389.49,676.53" />
	</edge>
	<edge id=":127_0" function="internal">
		<lane id=":127_0_0" index="0" disallow="tram rail_urban rail rail_electric rail_fast ship" speed="20.84" length="0.29" shape="1528.42,354.76 1528.38,354.47" />
	</edge>
	<edge id=":129_0" function="internal">
		<lane id=":129_0_0" index="0" disallow="tram rail_urban rail rail_electric rail_fast ship" speed="22.22" length="0.18" shape="1916.45,1532.35 1916.31,1532.23" />
	</edge>
	<edge id=":130_0" function="internal">
		<lane id=":130_0_0" index="0" disallow="tram rail_urban rail rail_electric rail_fast ship" speed="13.89" length="1.41" shape="1836.63,1084.00 1836.40,1084.34 1836.23,1084.57 1836.02,1084.77 1835.70,1085.04" />
	</edge>
	<edge id=":130_1" function="internal">
		<lane id=":130_1_0" index="0" disallow="tram rail_urban rail rail_electric rail_fast ship" speed="3.65" length="1.44" shape="1836.63,1084.00 1835.31,1084.56" />
	</edge>
	<edge id=":130_4" function="internal">
		<lane id=":130_4_0" index="0" disallow="tram rail_urban rail rail_electric rail_fast ship" speed="3.65" length="3.23" shape="1835.31,1084.56 1834.42,1084.45 1833.97,1083.68 1833.96,1082.24" />
	</edge>
	<edge id=":130_2" function="internal">
		<lane id=":130_2_0" index="0" disallow="tram rail_urban rail rail_electric rail_fast ship" speed="13.89" length="0.47" shape="1833.65,1082.58 1833.76,1082.49 1833.83,1082.43 1833.89,1082.35 1833.96,1082.24" />
	</edge>
	<edge id=":130_3" function="internal">
		<lane id=":130_3_0" index="0" disallow="tram rail_urban rail rail_electric rail_fast ship" speed="3.65" length="1.44" shape="1833.65,1082.58 1835.09,1082.43" />
	</edge>
	<edge id=":130_5" function="internal">
		<lane id=":130_5_0" index="0" disallow="tram rail_urban rail rail_electric rail_fast ship" speed="3.65" length="3.23" shape="1835.09,1082.43 1835.91,1082.79 1836.11,1083.66 1835.70,1085.04" />
	</edge>
	<edge id=":132_0" function="internal">
		<lane id=":132_0_0" index="0" disallow="tram rail_urban rail rail_electric rail_fast ship" speed="6.34" length="9.04" shape="1767.78,1123.92 1767.04,1121.53 1765.71,1120.01 1763.80,1119.37 1761.31,1119.61" />
	</edge>
	<edge id=":132_1" function="internal">
		<lane id=":132_1_0" index="0" disallow="tram rail_urban rail rail_electric rail_fast ship" speed="27.78" length="14.77" shape="1767.78,1123.92 1765.47,1109.33" />
	</edge>
	<edge id=":132_2" function="internal">
		<lane id=":132_2_0" index="0" disallow="tram rail_urban rail rail_electric rail_fast ship" speed="8.36" length="12.72" shape="1767.78,1123.92 1767.53,1120.00 1768.15,1116.87 1769.63,1114.53 1771.98,1112.97" />
	</edge>
	<edge id=":132_3" function="internal">
		<lane id=":132_3_0" index="0" disallow="tram rail_urban rail rail_electric rail_fast ship" speed="15.28" length="12.49" shape="1773.22,1115.92 1770.10,1117.14 1767.36,1118.05 1764.57,1118.81 1761.31,1119.61" />
	</edge>
	<edge id=":132_4" function="internal">
		<lane id=":132_4_0" index="0" disallow="tram rail_urban rail rail_electric rail_fast ship" speed="6.91" length="12.21" shape="1773.22,1115.92 1770.38,1116.49 1768.14,1115.59 1766.50,1113.20 1765.47,1109.33" />
	</edge>
	<edge id=":132_5" function="internal">
		<lane id=":132_5_0" index="0" disallow="tram rail_urban rail rail_electric rail_fast ship" speed="3.65" length="4.67" shape="1773.22,1115.92 1771.80,1115.64 1771.13,1115.06 1771.19,1114.17 1771.98,1112.97" />
	</edge>
	<edge id=":133_0" function="internal">
		<lane id=":133_0_0" index="0" disallow="tram rail_urban rail rail_electric rail_fast ship" speed="13.89" length="0.20" shape="1930.98,970.09 1930.92,970.10 1930.88,970.11 1930.85,970.12 1930.79,970.13" />
	</edge>
	<edge id=":133_1" function="internal">
		<lane id=":133_1_0" index="0" disallow="tram rail_urban rail rail_electric rail_fast ship" speed="3.65" length="2.34" shape="1930.98,970.09 1929.67,969.48 1929.15,968.76" />
	</edge>
	<edge id=":133_4" function="internal">
		<lane id=":133_4_0" index="0" disallow="tram rail_urban rail rail_electric rail_fast ship" speed="3.65" length="2.34" shape="1929.15,968.76 1929.43,967.90 1930.49,966.93" />
	</edge>
	<edge id=":133_2" function="internal">
		<lane id=":133_2_0" index="0" disallow="tram rail_urban rail rail_electric rail_fast ship" speed="13.89" length="0.59" shape="1929.91,967.06 1930.08,967.01 1930.20,966.98 1930.32,966.96 1930.49,966.93" />
	</edge>
	<edge id=":133_3" function="internal">
		<lane id=":133_3_0" index="0" disallow="tram rail_urban rail rail_electric rail_fast ship" speed="3.65" length="2.34" shape="1929.91,967.06 1931.29,967.50 1931.89,968.16" />
	</edge>
	<edge id=":133_5" function="internal">
		<lane id=":133_5_0" index="0" disallow="tram rail_urban rail rail_electric rail_fast ship" speed="3.65" length="2.34" shape="1931.89,968.16 1931.72,969.03 1930.79,970.13" />
	</edge>
	<edge id=":134_0" function="internal">
		<lane id=":134_0_0" index="0" disallow="tram rail_urban rail rail_electric rail_fast ship" speed="18.05" length="5.19" shape="2070.65,1329.19 2069.59,1330.29 2068.76,1330.93 2067.82,1331.45 2066.48,1332.20" />
	</edge>
	<edge id=":135_0" function="internal">
		<lane id=":135_0_0" index="0" disallow="tram rail_urban rail rail_electric rail_fast ship" speed="3.90" length="2.58" shape="1837.42,1205.36 1837.21,1204.69 1836.83,1204.25 1836.29,1204.03 1835.58,1204.05" />
	</edge>
	<edge id=":136_0" function="internal">
		<lane id=":136_0_0" index="0" disallow="tram rail_urban rail rail_electric rail_fast ship" speed="22.23" length="0.10" shape="1762.63,1090.74 1762.64,1090.82" />
	</edge>
	<edge id=":139_0" function="internal">
		<lane id=":139_0_0" index="0" disallow="tram rail_urban rail rail_electric rail_fast ship" speed="22.22" length="0.10" shape="1977.12,1673.13 1977.11,1673.05" />
	</edge>
	<edge id=":141_0" function="internal">
		<lane id=":141_0_0" index="0" disallow="tram rail_urban rail rail_electric rail_fast ship" speed="5.69" length="2.88" shape="2080.44,1329.54 2080.21,1328.90 2080.27,1328.21 2080.48,1327.49 2080.69,1326.76" />
	</edge>
	<edge id=":142_0" function="internal">
		<lane id=":142_0_0" index="0" disallow="tram rail_urban rail rail_electric rail_fast ship" speed="10.69" length="4.87" shape="2069.55,1337.10 2069.83,1338.45 2069.67,1339.41 2069.29,1340.40 2068.91,1341.80" />
	</edge>
	<edge id=":143_0" function="internal">
		<lane id=":143_0_0" index="0" disallow="tram rail_urban rail rail_electric rail_fast ship" speed="11.11" length="0.29" shape="2005.71,1478.34 2005.84,1478.07" />
	</edge>
	<edge id=":145_0" function="internal">
		<lane id=":145_0_0" index="0" disallow="tram rail_urban rail rail_electric rail_fast ship" speed="7.34" length="2.50" shape="1870.13,1369.80 1867.64,1369.65" />
	</edge>
	<edge id=":145_1" function="internal">
		<lane id=":145_1_0" index="0" disallow="tram rail_urban rail rail_electric rail_fast ship" speed="3.65" length="1.44" shape="1870.13,1369.80 1868.82,1369.20" />
	</edge>
	<edge id=":145_4" function="internal">
		<lane id=":145_4_0" index="0" disallow="tram rail_urban rail rail_electric rail_fast ship" speed="7.34" length="9.22" shape="1867.64,1369.65 1865.65,1368.29 1864.17,1365.74 1863.20,1361.99" />
	</edge>
	<edge id=":145_5" function="internal">
		<lane id=":145_5_0" index="0" disallow="tram rail_urban rail rail_electric rail_fast ship" speed="3.65" length="3.23" shape="1868.82,1369.20 1868.30,1368.47 1868.57,1367.62 1869.63,1366.64" />
	</edge>
	<edge id=":145_2" function="internal">
		<lane id=":145_2_0" index="0" disallow="tram rail_urban rail rail_electric rail_fast ship" speed="6.50" length="9.03" shape="1858.57,1368.41 1860.94,1367.68 1862.50,1366.36 1863.25,1364.47 1863.20,1361.99" />
	</edge>
	<edge id=":145_3" function="internal">
		<lane id=":145_3_0" index="0" disallow="tram rail_urban rail rail_electric rail_fast ship" speed="13.89" length="11.20" shape="1858.57,1368.41 1869.63,1366.64" />
	</edge>
	<edge id=":146_0" function="internal">
		<lane id=":146_0_0" index="0" disallow="tram rail_urban rail rail_electric rail_fast ship" speed="13.89" length="0.10" shape="1975.20,1352.95 1975.20,1352.95" />
	</edge>
	<edge id=":146_1" function="internal">
		<lane id=":146_1_0" index="0" disallow="tram rail_urban rail rail_electric rail_fast ship" speed="3.65" length="2.34" shape="1975.20,1352.95 1973.89,1352.35 1973.37,1351.62" />
	</edge>
	<edge id=":146_4" function="internal">
		<lane id=":146_4_0" index="0" disallow="tram rail_urban rail rail_electric rail_fast ship" speed="3.65" length="2.34" shape="1973.37,1351.62 1973.64,1350.77 1974.70,1349.79" />
	</edge>
	<edge id=":146_2" function="internal">
		<lane id=":146_2_0" index="0" disallow="tram rail_urban rail rail_electric rail_fast ship" speed="13.89" length="0.10" shape="1974.70,1349.79 1974.70,1349.79" />
	</edge>
	<edge id=":146_3" function="internal">
		<lane id=":146_3_0" index="0" disallow="tram rail_urban rail rail_electric rail_fast ship" speed="3.65" length="2.34" shape="1974.70,1349.79 1976.01,1350.39 1976.53,1351.12" />
	</edge>
	<edge id=":146_5" function="internal">
		<lane id=":146_5_0" index="0" disallow="tram rail_urban rail rail_electric rail_fast ship" speed="3.65" length="2.34" shape="1976.53,1351.12 1976.26,1351.97 1975.20,1352.95" />
	</edge>
	<edge id=":153_0" function="internal">
		<lane id=":153_0_0" index="0" disallow="tram rail_urban rail rail_electric rail_fast ship" speed="13.89" length="0.10" shape="512.18,1661.23 512.18,1661.23" />
	</edge>
	<edge id=":155_0" function="internal">
		<lane id=":155_0_0" index="0" disallow="tram rail_urban rail rail_electric rail_fast ship" speed="15.28" length="0.30" shape="580.31,1195.37 580.60,1195.33" />
	</edge>
	<edge id=":156_0" function="internal">
		<lane id=":156_0_0" index="0" disallow="tram rail_urban rail rail_electric rail_fast ship" speed="13.89" length="11.20" shape="794.51,1702.98 792.85,1691.91" />
	</edge>
	<edge id=":156_1" function="internal">
		<lane id=":156_1_0" index="0" disallow="tram rail_urban rail rail_electric rail_fast ship" speed="3.65" length="1.23" shape="794.51,1702.98 795.03,1701.86" />
	</edge>
	<edge id=":156_4" function="internal">
		<lane id=":156_4_0" index="0" disallow="tram rail_urban rail rail_electric rail_fast ship" speed="3.65" length="3.44" shape="795.03,1701.86 795.12,1701.68 795.86,1701.16 796.71,1701.44 797.67,1702.51" />
	</edge>
	<edge id=":156_2" function="internal">
		<lane id=":156_2_0" index="0" disallow="tram rail_urban rail rail_electric rail_fast ship" speed="6.51" length="9.03" shape="788.14,1698.27 790.51,1697.56 792.09,1696.27 792.87,1694.38 792.85,1691.91" />
	</edge>
	<edge id=":156_3" function="internal">
		<lane id=":156_3_0" index="0" disallow="tram rail_urban rail rail_electric rail_fast ship" speed="7.33" length="11.73" shape="788.14,1698.27 792.00,1698.05 794.88,1698.68 796.77,1700.17 797.67,1702.51" />
	</edge>
	<edge id=":160_0" function="internal">
		<lane id=":160_0_0" index="0" disallow="tram rail_urban rail rail_electric rail_fast ship" speed="7.39" length="2.47" shape="846.16,1160.97 843.70,1160.75" />
	</edge>
	<edge id=":160_1" function="internal">
		<lane id=":160_1_0" index="0" disallow="tram rail_urban rail rail_electric rail_fast ship" speed="3.65" length="1.44" shape="846.16,1160.97 844.87,1160.34" />
	</edge>
	<edge id=":160_4" function="internal">
		<lane id=":160_4_0" index="0" disallow="tram rail_urban rail rail_electric rail_fast ship" speed="7.39" length="9.22" shape="843.70,1160.75 841.75,1159.35 840.29,1156.78 839.34,1153.04" />
	</edge>
	<edge id=":160_5" function="internal">
		<lane id=":160_5_0" index="0" disallow="tram rail_urban rail rail_electric rail_fast ship" speed="3.65" length="3.23" shape="844.87,1160.34 844.37,1159.60 844.66,1158.76 845.74,1157.80" />
	</edge>
	<edge id=":160_2" function="internal">
		<lane id=":160_2_0" index="0" disallow="tram rail_urban rail rail_electric rail_fast ship" speed="6.49" length="9.03" shape="834.69,1159.43 837.06,1158.71 838.63,1157.40 839.39,1155.51 839.34,1153.04" />
	</edge>
	<edge id=":160_3" function="internal">
		<lane id=":160_3_0" index="0" disallow="tram rail_urban rail rail_electric rail_fast ship" speed="13.89" length="11.17" shape="834.69,1159.43 845.74,1157.80" />
	</edge>
	<edge id=":161_0" function="internal">
		<lane id=":161_0_0" index="0" disallow="tram rail_urban rail rail_electric rail_fast ship" speed="13.89" length="0.29" shape="725.67,1237.54 725.63,1237.25" />
	</edge>
	<edge id=":162_0" function="internal">
		<lane id=":162_0_0" index="0" disallow="tram rail_urban rail rail_electric rail_fast ship" speed="22.22" length="11.20" shape="676.69,1719.93 675.08,1708.84" />
	</edge>
	<edge id=":162_1" function="internal">
		<lane id=":162_1_0" index="0" disallow="tram rail_urban rail rail_electric rail_fast ship" speed="6.49" length="9.04" shape="676.69,1719.93 676.70,1717.44 677.50,1715.56 679.09,1714.29 681.47,1713.62" />
	</edge>
	<edge id=":162_2" function="internal">
		<lane id=":162_2_0" index="0" disallow="tram rail_urban rail rail_electric rail_fast ship" speed="6.54" length="9.01" shape="670.37,1715.22 672.74,1714.48 674.31,1713.17 675.09,1711.29 675.08,1708.84" />
	</edge>
	<edge id=":162_3" function="internal">
		<lane id=":162_3_0" index="0" disallow="tram rail_urban rail rail_electric rail_fast ship" speed="13.89" length="11.21" shape="670.37,1715.22 681.47,1713.62" />
	</edge>
	<edge id=":163_0" function="internal">
		<lane id=":163_0_0" index="0" disallow="tram rail_urban rail rail_electric rail_fast ship" speed="13.89" length="0.10" shape="579.54,1300.33 579.54,1300.33" />
	</edge>
	<edge id=":164_0" function="internal">
		<lane id=":164_0_0" index="0" disallow="tram rail_urban rail rail_electric rail_fast ship" speed="3.90" length="2.58" shape="785.06,1229.79 785.06,1229.09 785.28,1228.55 785.74,1228.18 786.42,1227.99" />
	</edge>
	<edge id=":165_0" function="internal">
		<lane id=":165_0_0" index="0" disallow="tram rail_urban rail rail_electric rail_fast ship" speed="6.52" length="9.00" shape="876.69,1162.50 876.00,1160.13 874.72,1158.54 872.85,1157.74 870.40,1157.72" />
	</edge>
	<edge id=":165_1" function="internal">
		<lane id=":165_1_0" index="0" disallow="tram rail_urban rail rail_electric rail_fast ship" speed="7.32" length="11.67" shape="876.69,1162.50 876.49,1158.66 877.13,1155.80 878.62,1153.92 880.95,1153.03" />
	</edge>
	<edge id=":165_2" function="internal">
		<lane id=":165_2_0" index="0" disallow="tram rail_urban rail rail_electric rail_fast ship" speed="13.89" length="11.12" shape="881.41,1156.19 870.40,1157.72" />
	</edge>
	<edge id=":165_3" function="internal">
		<lane id=":165_3_0" index="0" disallow="tram rail_urban rail rail_electric rail_fast ship" speed="3.65" length="1.44" shape="881.41,1156.19 880.11,1155.58" />
	</edge>
	<edge id=":165_6" function="internal">
		<lane id=":165_6_0" index="0" disallow="tram rail_urban rail rail_electric rail_fast ship" speed="3.65" length="3.23" shape="880.11,1155.58 879.60,1154.84 879.88,1153.99 880.95,1153.03" />
	</edge>
	<edge id=":165_4" function="internal">
		<lane id=":165_4_0" index="0" disallow="tram rail_urban rail rail_electric rail_fast ship" speed="13.89" length="11.08" shape="869.97,1154.55 880.95,1153.03" />
	</edge>
	<edge id=":165_5" function="internal">
		<lane id=":165_5_0" index="0" disallow="tram rail_urban rail rail_electric rail_fast ship" speed="3.65" length="1.44" shape="869.97,1154.55 871.27,1155.18" />
	</edge>
	<edge id=":165_7" function="internal">
		<lane id=":165_7_0" index="0" disallow="tram rail_urban rail rail_electric rail_fast ship" speed="3.65" length="3.23" shape="871.27,1155.18 871.77,1155.92 871.48,1156.76 870.40,1157.72" />
	</edge>
	<edge id=":166_0" function="internal">
		<lane id=":166_0_0" index="0" disallow="tram rail_urban rail rail_electric rail_fast ship" speed="6.39" length="9.04" shape="639.88,1025.53 639.33,1023.10 638.13,1021.47 636.28,1020.64 633.78,1020.62" />
	</edge>
	<edge id=":166_1" function="internal">
		<lane id=":166_1_0" index="0" disallow="tram rail_urban rail rail_electric rail_fast ship" speed="13.89" length="14.46" shape="639.88,1025.53 638.47,1011.14" />
	</edge>
	<edge id=":166_2" function="internal">
		<lane id=":166_2_0" index="0" disallow="tram rail_urban rail rail_electric rail_fast ship" speed="6.61" length="9.22" shape="633.36,1017.45 635.83,1016.77 637.51,1015.49 638.39,1013.61 638.47,1011.14" />
	</edge>
	<edge id=":166_3" function="internal">
		<lane id=":166_3_0" index="0" disallow="tram rail_urban rail rail_electric rail_fast ship" speed="3.65" length="1.44" shape="633.36,1017.45 634.65,1018.08" />
	</edge>
	<edge id=":166_4" function="internal">
		<lane id=":166_4_0" index="0" disallow="tram rail_urban rail rail_electric rail_fast ship" speed="3.65" length="3.23" shape="634.65,1018.08 635.16,1018.82 634.87,1019.67 633.78,1020.62" />
	</edge>
	<edge id=":167_0" function="internal">
		<lane id=":167_0_0" index="0" disallow="tram rail_urban rail rail_electric rail_fast ship" speed="3.90" length="2.58" shape="882.48,1214.41 883.16,1214.22 883.62,1213.85 883.84,1213.31 883.84,1212.60" />
	</edge>
	<edge id=":168_0" function="internal">
		<lane id=":168_0_0" index="0" disallow="tram rail_urban rail rail_electric rail_fast ship" speed="6.52" length="8.96" shape="1117.91,1828.92 1117.21,1826.58 1115.92,1825.02 1114.05,1824.22 1111.58,1824.20" />
	</edge>
	<edge id=":168_1" function="internal">
		<lane id=":168_1_0" index="0" disallow="tram rail_urban rail rail_electric rail_fast ship" speed="13.89" length="11.06" shape="1117.91,1828.92 1116.28,1817.98" />
		<lane id=":168_1_1" index="1" disallow="tram rail_urban rail rail_electric rail_fast ship" speed="13.89" length="11.06" shape="1121.07,1828.45 1119.44,1817.51" />
	</edge>
	<edge id=":169_0" function="internal">
		<lane id=":169_0_0" index="0" disallow="tram rail_urban rail rail_electric rail_fast ship" speed="3.95" length="2.04" shape="699.74,1871.33 699.22,1871.17 698.83,1870.88 698.57,1870.48 698.43,1869.96" />
	</edge>
	<edge id=":171_0" function="internal">
		<lane id=":171_0_0" index="0" disallow="tram rail_urban rail rail_electric rail_fast ship" speed="13.89" length="9.48" shape="543.26,1036.39 542.22,1026.97" />
	</edge>
	<edge id=":171_1" function="internal">
		<lane id=":171_1_0" index="0" disallow="tram rail_urban rail rail_electric rail_fast ship" speed="6.14" length="7.88" shape="543.26,1036.39 543.10,1033.64 543.44,1031.60 544.30,1030.29 545.66,1029.70" />
	</edge>
	<edge id=":171_2" function="internal">
		<lane id=":171_2_0" index="0" disallow="tram rail_urban rail rail_electric rail_fast ship" speed="6.02" length="1.04" shape="546.11,1032.87 545.08,1032.73" />
	</edge>
	<edge id=":171_3" function="internal">
		<lane id=":171_3_0" index="0" disallow="tram rail_urban rail rail_electric rail_fast ship" speed="3.65" length="1.04" shape="546.11,1032.87 545.18,1032.42" />
	</edge>
	<edge id=":171_4" function="internal">
		<lane id=":171_4_0" index="0" disallow="tram rail_urban rail rail_electric rail_fast ship" speed="6.02" length="6.88" shape="545.08,1032.73 544.62,1032.68 543.47,1031.63 542.67,1029.73 542.22,1026.97" />
	</edge>
	<edge id=":171_5" function="internal">
		<lane id=":171_5_0" index="0" disallow="tram rail_urban rail rail_electric rail_fast ship" speed="3.65" length="3.64" shape="545.18,1032.42 544.81,1032.24 544.30,1031.51 544.58,1030.66 545.66,1029.70" />
	</edge>
	<edge id=":172_0" function="internal">
		<lane id=":172_0_0" index="0" disallow="tram rail_urban rail rail_electric rail_fast ship" speed="7.07" length="8.67" shape="684.85,1776.98 684.18,1775.08 682.89,1773.65 680.98,1772.68 678.45,1772.17" />
	</edge>
	<edge id=":172_1" function="internal">
		<lane id=":172_1_0" index="0" disallow="tram rail_urban rail rail_electric rail_fast ship" speed="22.22" length="11.01" shape="684.85,1776.98 683.13,1766.10" />
	</edge>
	<edge id=":173_0" function="internal">