<?xml version='1.0' encoding='utf-8'?>
<net xmlns:xsi="http://www.w3.org/2001/XMLSchema-instance" version="1.9" junctionCornerDetail="5" limitTurnSpeed="5.50" xsi:noNamespaceSchemaLocation="http://sumo.dlr.de/xsd/net_file.xsd">
	<location netOffset="-336586.08,3754670.31" convBoundary="0.00,12.34,2514.60,2196.77" origBoundary="151.232525,-33.920080,151.266296,-33.899237" projParameter="+proj=utm +zone=56 +ellps=WGS84 +datum=WGS84 +units=m +no_defs" />
	<subgraphs>
		<subgraph id="sg0" from_junction="77" to_junction="357" edges="430,19,830,536,174,112,752,505,44,403,340,736,159,502,639,549,764,756,84,503,508,371,1059,906,161,628,525,478,166,904,510,468,683,968,747,23,737,228,515,584,861,20,469,952,735,954,524,829,339,793,523,583,892,827,893,926,506,507,630,118,587,750,967,124,963,559,211,637,962,751,745,405,957,768,307,994,767,571,826,29,477,294,229,399,509,406,839,1057,853,754,165,633,527,212,164,748,765,86,526,616,629,342,394,62,123,740,828,167,631,953,905,8,903,742,520,13,840,670,671,407,404,137,516,175,770,908,24,964,983,640,734,682,909,916,658,39,635,116,634,969,400,351,907,673,741,157,608,887,38,738,863,1009,958,132,749,638,636,674,894,410,862,615,21,996,411,295,22,647,306,627,504,755,213,951" />
		<subgraph id="sg1" from_junction="315" to_junction="241" edges="430,19,830,563,283,710,374,112,889,513,379,403,340,438,5,97,595,549,762,538,90,508,84,594,831,34,525,510,591,378,834,23,485,228,197,515,771,20,47,829,111,524,339,48,523,827,289,832,55,926,583,796,333,507,511,587,17,124,56,1010,12,837,609,569,376,934,428,6,405,768,811,826,54,935,380,600,87,399,509,936,331,334,406,286,527,53,940,546,107,599,795,501,805,558,929,709,526,423,616,342,232,18,123,472,988,828,512,938,16,941,9,290,210,425,82,742,547,377,117,539,874,407,875,404,932,285,10,641,341,611,516,770,209,812,944,809,332,772,24,535,897,810,592,930,548,381,708,937,942,116,426,585,113,588,763,427,400,969,866,284,887,52,367,424,769,49,250,471,50,959,931,928,483,373,577,615,890,21,933,51,382,896,504,970,11,46" />
		<subgraph id="sg2" from_junction="388" to_junction="87" edges="698,725,180,759,1039,77,446,675,44,438,357,684,475,643,312,133,135,864,906,248,263,355,278,468,808,747,737,584,200,657,981,876,469,699,439,125,648,1026,642,645,630,35,217,432,695,265,790,559,214,656,307,189,571,202,294,724,727,853,760,633,243,718,748,978,264,696,644,128,726,629,144,442,786,631,134,1023,1012,152,230,619,798,201,310,806,722,791,1033,3,440,797,758,908,977,136,115,1024,719,179,241,649,216,347,557,635,1031,447,909,792,215,1027,717,634,907,203,865,356,738,863,997,317,721,1030,716,807,354,445,749,787,636,192,1058,707,249,723,441,854,295,647,306,788" />
		<subgraph id="sg3" from_junction="316" to_junction="241" edges="430,19,830,283,710,563,374,112,889,513,505,372,379,403,5,340,595,762,538,90,508,371,84,594,831,34,525,478,510,267,500,591,378,345,485,23,228,311,515,253,197,384,20,47,829,985,111,524,48,947,793,339,523,827,926,832,289,55,583,796,333,507,279,511,989,1003,587,17,750,124,12,1010,927,56,837,963,609,376,569,375,211,934,428,6,751,962,405,768,811,826,29,935,380,92,87,477,54,484,399,406,936,334,229,990,509,331,984,286,498,527,212,53,481,940,107,795,501,950,929,709,526,423,342,616,232,18,394,123,988,335,828,512,740,938,941,213,16,9,362,65,210,290,742,425,714,82,923,520,377,539,117,407,874,875,404,932,7,285,925,365,10,641,341,611,543,516,770,209,812,946,944,415,809,332,772,24,964,535,544,983,943,810,592,930,381,708,937,916,945,942,116,514,426,585,763,366,113,588,427,969,400,1002,284,391,741,521,887,269,52,1007,367,424,280,1009,769,250,49,471,50,959,928,266,483,373,915,499,410,615,890,21,924,933,262,51,411,382,22,387,627,504,970,11,46" />
	</subgraphs>
	<type id="highway.bridleway" priority="1" numLanes="1" speed="2.78" allow="pedestrian" oneway="1" width="2.00" />
	<type id="highway.bus_guideway" priority="1" numLanes="1" speed="27.78" allow="bus" oneway="1" />
	<type id="highway.cycleway" priority="1" numLanes="1" speed="8.33" allow="bicycle" oneway="0" width="1.00" />
	<type id="highway.footway" priority="1" numLanes="1" speed="2.78" allow="pedestrian" oneway="1" width="2.00" />
	<type id="highway.ford" priority="1" numLanes="1" speed="2.78" allow="army" oneway="0" />
	<type id="highway.living_street" priority="2" numLanes="1" speed="2.78" disallow="tram rail_urban rail rail_electric rail_fast ship" oneway="0" />
	<type id="highway.motorway" priority="14" numLanes="2" speed="39.44" allow="private emergency authority army vip passenger hov taxi bus coach delivery truck trailer motorcycle evehicle custom1 custom2" oneway="1" />
	<type id="highway.motorway_link" priority="9" numLanes="1" speed="22.22" allow="private emergency authority army vip passenger hov taxi bus coach delivery truck trailer motorcycle evehicle custom1 custom2" oneway="1" />
	<type id="highway.path" priority="1" numLanes="1" speed="2.78" allow="pedestrian bicycle" oneway="0" width="2.00" />
	<type id="highway.pedestrian" priority="1" numLanes="1" speed="2.78" allow="pedestrian" oneway="1" width="2.00" />
	<type id="highway.primary" priority="12" numLanes="2" speed="27.78" disallow="tram rail_urban rail rail_electric rail_fast ship" oneway="0" />
	<type id="highway.primary_link" priority="7" numLanes="1" speed="22.22" disallow="tram rail_urban rail rail_electric rail_fast ship" oneway="0" />
	<type id="highway.raceway" priority="15" numLanes="2" speed="83.33" allow="vip" oneway="0" />
	<type id="highway.residential" priority="3" numLanes="1" speed="13.89" disallow="tram rail_urban rail rail_electric rail_fast ship" oneway="0" />
	<type id="highway.secondary" priority="11" numLanes="1" speed="27.78" disallow="tram rail_urban rail rail_electric rail_fast ship" oneway="0" />
	<type id="highway.secondary_link" priority="6" numLanes="1" speed="22.22" disallow="tram rail_urban rail rail_electric rail_fast ship" oneway="0" />
	<type id="highway.service" priority="1" numLanes="1" speed="5.56" allow="pedestrian delivery bicycle" oneway="0" />
	<type id="highway.stairs" priority="1" numLanes="1" speed="1.39" allow="pedestrian" oneway="1" width="2.00" />
	<type id="highway.step" priority="1" numLanes="1" speed="1.39" allow="pedestrian" oneway="1" width="2.00" />
	<type id="highway.steps" priority="1" numLanes="1" speed="1.39" allow="pedestrian" oneway="1" width="2.00" />
	<type id="highway.tertiary" priority="10" numLanes="1" speed="22.22" disallow="tram rail_urban rail rail_electric rail_fast ship" oneway="0" />
	<type id="highway.tertiary_link" priority="5" numLanes="1" speed="22.22" disallow="tram rail_urban rail rail_electric rail_fast ship" oneway="0" />
	<type id="highway.track" priority="1" numLanes="1" speed="5.56" allow="pedestrian motorcycle moped bicycle" oneway="0" />
	<type id="highway.trunk" priority="13" numLanes="2" speed="27.78" disallow="pedestrian bicycle tram rail_urban rail rail_electric rail_fast ship" oneway="0" />
	<type id="highway.trunk_link" priority="8" numLanes="1" speed="22.22" disallow="pedestrian bicycle tram rail_urban rail rail_electric rail_fast ship" oneway="0" />
	<type id="highway.unclassified" priority="4" numLanes="1" speed="13.89" disallow="tram rail_urban rail rail_electric rail_fast ship" oneway="0" />
	<type id="highway.unsurfaced" priority="1" numLanes="1" speed="8.33" disallow="tram rail_urban rail rail_electric rail_fast ship" oneway="0" />
	<type id="railway.highspeed" priority="21" numLanes="1" speed="69.44" allow="rail_fast" oneway="1" />
	<type id="railway.light_rail" priority="19" numLanes="1" speed="27.78" allow="rail_urban" oneway="1" />
	<type id="railway.preserved" priority="16" numLanes="1" speed="27.78" allow="rail" oneway="1" />
	<type id="railway.rail" priority="20" numLanes="1" speed="44.44" allow="rail" oneway="1" />
	<type id="railway.subway" priority="18" numLanes="1" speed="27.78" allow="rail_urban" oneway="1" />
	<type id="railway.tram" priority="17" numLanes="1" speed="13.89" allow="tram" oneway="1" />
	<edge id=":1_0" function="internal">
		<lane id=":1_0_0" index="0" disallow="tram rail_urban rail rail_electric rail_fast ship" speed="3.93" length="3.39" shape="1576.08,1031.10 1575.09,1031.15 1574.45,1030.85 1574.16,1030.20 1574.22,1029.21" />
	</edge>
	<edge id=":10_0" function="internal">
		<lane id=":10_0_0" index="0" disallow="tram rail_urban rail rail_electric rail_fast ship" speed="4.43" length="6.48" shape="2087.99,1333.96 2089.93,1332.90 2090.49,1332.03 2089.70,1331.37 2087.54,1330.92" />
	</edge>
	<edge id=":101_0" function="internal">
		<lane id=":101_0_0" index="0" disallow="tram rail_urban rail rail_electric rail_fast ship" speed="22.22" length="14.42" shape="1711.61,592.22 1697.37,594.49" />
	</edge>
	<edge id=":101_1" function="internal">
		<lane id=":101_1_0" index="0" disallow="tram rail_urban rail rail_electric rail_fast ship" speed="8.00" length="4.08" shape="1711.61,592.22 1707.73,592.29 1707.55,592.22" />
	</edge>
	<edge id=":101_2" function="internal">
		<lane id=":101_2_0" index="0" disallow="tram rail_urban rail rail_electric rail_fast ship" speed="3.65" length="1.44" shape="1711.61,592.22 1710.30,591.62" />
	</edge>
	<edge id=":101_9" function="internal">
		<lane id=":101_9_0" index="0" disallow="tram rail_urban rail rail_electric rail_fast ship" speed="8.00" length="10.12" shape="1707.55,592.22 1704.75,591.10 1702.68,588.64 1701.52,584.93" />
	</edge>
	<edge id=":101_10" function="internal">
		<lane id=":101_10_0" index="0" disallow="tram rail_urban rail rail_electric rail_fast ship" speed="3.65" length="3.23" shape="1710.30,591.62 1709.78,590.89 1710.05,590.04 1711.10,589.06" />
	</edge>
	<edge id=":101_3" function="internal">
		<lane id=":101_3_0" index="0" disallow="tram rail_urban rail rail_electric rail_fast ship" speed="6.51" length="9.04" shape="1704.68,584.41 1705.41,586.78 1706.73,588.34 1708.63,589.10 1711.10,589.06" />
	</edge>
	<edge id=":101_4" function="internal">
		<lane id=":101_4_0" index="0" disallow="tram rail_urban rail rail_electric rail_fast ship" speed="7.99" length="14.21" shape="1704.68,584.41 1704.75,588.31 1703.56,591.29 1701.10,593.35 1697.37,594.49" />
	</edge>
	<edge id=":101_5" function="internal">
		<lane id=":101_5_0" index="0" disallow="tram rail_urban rail rail_electric rail_fast ship" speed="3.65" length="4.67" shape="1704.68,584.41 1704.08,585.73 1703.35,586.25 1702.50,585.98 1701.52,584.93" />
	</edge>
	<edge id=":101_6" function="internal">
		<lane id=":101_6_0" index="0" disallow="tram rail_urban rail rail_electric rail_fast ship" speed="6.50" length="9.03" shape="1696.88,591.33 1699.24,590.60 1700.80,589.29 1701.56,587.40 1701.52,584.93" />
	</edge>
	<edge id=":101_7" function="internal">
		<lane id=":101_7_0" index="0" disallow="tram rail_urban rail rail_electric rail_fast ship" speed="22.22" length="14.41" shape="1696.88,591.33 1711.10,589.06" />
	</edge>
	<edge id=":101_8" function="internal">
		<lane id=":101_8_0" index="0" disallow="tram rail_urban rail rail_electric rail_fast ship" speed="3.65" length="1.44" shape="1696.88,591.33 1698.19,591.94" />
	</edge>
	<edge id=":101_11" function="internal">
		<lane id=":101_11_0" index="0" disallow="tram rail_urban rail rail_electric rail_fast ship" speed="3.65" length="3.23" shape="1698.19,591.94 1698.70,592.66 1698.43,593.52 1697.37,594.49" />
	</edge>
	<edge id=":103_0" function="internal">
		<lane id=":103_0_0" index="0" disallow="tram rail_urban rail rail_electric rail_fast ship" speed="3.91" length="2.53" shape="2204.42,247.48 2203.76,247.68 2203.32,248.05 2203.10,248.58 2203.09,249.27" />
	</edge>
	<edge id=":104_0" function="internal">
		<lane id=":104_0_0" index="0" disallow="tram rail_urban rail rail_electric rail_fast ship" speed="6.53" length="9.06" shape="1534.39,391.73 1533.65,389.37 1532.33,387.81 1530.43,387.05 1527.94,387.09" />
	</edge>
	<edge id=":104_1" function="internal">
		<lane id=":104_1_0" index="0" disallow="tram rail_urban rail rail_electric rail_fast ship" speed="13.89" length="14.40" shape="1534.39,391.73 1532.09,377.52" />
	</edge>
	<edge id=":104_2" function="internal">
		<lane id=":104_2_0" index="0" disallow="tram rail_urban rail rail_electric rail_fast ship" speed="7.99" length="4.06" shape="1535.25,377.01 1535.32,380.91 1535.26,381.06" />
	</edge>
	<edge id=":104_3" function="internal">
		<lane id=":104_3_0" index="0" disallow="tram rail_urban rail rail_electric rail_fast ship" speed="3.65" length="1.44" shape="1535.25,377.01 1534.65,378.32" />
	</edge>
	<edge id=":104_6" function="internal">
		<lane id=":104_6_0" index="0" disallow="tram rail_urban rail rail_electric rail_fast ship" speed="7.99" length="10.15" shape="1535.26,381.06 1534.13,383.89 1531.66,385.95 1527.94,387.09" />
	</edge>
	<edge id=":104_7" function="internal">
		<lane id=":104_7_0" index="0" disallow="tram rail_urban rail rail_electric rail_fast ship" speed="3.65" length="3.23" shape="1534.65,378.32 1533.93,378.85 1533.07,378.58 1532.09,377.52" />
	</edge>
	<edge id=":104_4" function="internal">
		<lane id=":104_4_0" index="0" disallow="tram rail_urban rail rail_electric rail_fast ship" speed="6.50" length="9.03" shape="1527.44,383.92 1529.81,383.20 1531.38,381.89 1532.14,380.00 1532.09,377.52" />
	</edge>
	<edge id=":104_5" function="internal">
		<lane id=":104_5_0" index="0" disallow="tram rail_urban rail rail_electric rail_fast ship" speed="3.65" length="4.67" shape="1527.44,383.92 1528.75,384.53 1529.27,385.26 1529.00,386.11 1527.94,387.09" />
	</edge>
	<edge id=":107_0" function="internal">
		<lane id=":107_0_0" index="0" disallow="tram rail_urban rail rail_electric rail_fast ship" speed="13.89" length="0.30" shape="948.66,199.83 948.37,199.89" />
	</edge>
	<edge id=":108_0" function="internal">
		<lane id=":108_0_0" index="0" disallow="tram rail_urban rail rail_electric rail_fast ship" speed="13.89" length="10.68" shape="2321.54,222.48 2323.11,233.04" />
	</edge>
	<edge id=":108_1" function="internal">
		<lane id=":108_1_0" index="0" disallow="tram rail_urban rail rail_electric rail_fast ship" speed="6.57" length="8.75" shape="2321.54,222.48 2321.53,224.82 2320.76,226.65 2319.25,227.97 2316.97,228.78" />
	</edge>
	<edge id=":112_0" function="internal">
		<lane id=":112_0_0" index="0" disallow="tram rail_urban rail rail_electric rail_fast ship" speed="6.53" length="8.93" shape="1406.96,310.29 1406.20,307.96 1404.88,306.41 1403.01,305.65 1400.59,305.67" />
	</edge>
	<edge id=":112_1" function="internal">
		<lane id=":112_1_0" index="0" disallow="tram rail_urban rail rail_electric rail_fast ship" speed="7.25" length="11.59" shape="1406.96,310.29 1406.63,306.48 1407.18,303.63 1408.60,301.73 1410.91,300.80" />
	</edge>
	<edge id=":112_2" function="internal">
		<lane id=":112_2_0" index="0" disallow="tram rail_urban rail rail_electric rail_fast ship" speed="13.89" length="10.98" shape="1411.43,303.95 1400.59,305.67" />
	</edge>
	<edge id=":112_3" function="internal">
		<lane id=":112_3_0" index="0" disallow="tram rail_urban rail rail_electric rail_fast ship" speed="3.65" length="1.23" shape="1411.43,303.95 1410.31,303.45" />
	</edge>
	<edge id=":112_4" function="internal">
		<lane id=":112_4_0" index="0" disallow="tram rail_urban rail rail_electric rail_fast ship" speed="3.65" length="3.44" shape="1410.31,303.45 1410.12,303.36 1409.59,302.64 1409.86,301.78 1410.91,300.80" />
	</edge>
	<edge id=":113_0" function="internal">
		<lane id=":113_0_0" index="0" disallow="tram rail_urban rail rail_electric rail_fast ship" speed="27.78" length="0.30" shape="1489.79,115.20 1489.75,114.90" />
	</edge>
	<edge id=":116_0" function="internal">
		<lane id=":116_0_0" index="0" disallow="tram rail_urban rail rail_electric rail_fast ship" speed="13.89" length="0.29" shape="444.08,626.20 444.03,625.92" />
	</edge>
	<edge id=":117_0" function="internal">
		<lane id=":117_0_0" index="0" disallow="tram rail_urban rail rail_electric rail_fast ship" speed="6.37" length="9.04" shape="1470.06,644.17 1469.31,641.78 1467.98,640.26 1466.07,639.60 1463.58,639.81" />
	</edge>
	<edge id=":117_1" function="internal">
		<lane id=":117_1_0" index="0" disallow="tram rail_urban rail rail_electric rail_fast ship" speed="7.56" length="11.76" shape="1470.06,644.17 1469.75,640.25 1470.25,637.27 1471.56,635.23 1473.68,634.13" />
	</edge>
	<edge id=":117_2" function="internal">
		<lane id=":117_2_0" index="0" disallow="tram rail_urban rail rail_electric rail_fast ship" speed="27.78" length="11.17" shape="1474.46,637.24 1463.58,639.81" />
	</edge>
	<edge id=":117_3" function="internal">
		<lane id=":117_3_0" index="0" disallow="tram rail_urban rail rail_electric rail_fast ship" speed="3.65" length="4.67" shape="1474.46,637.24 1473.10,636.75 1472.51,636.07 1472.71,635.20 1473.68,634.13" />
	</edge>
	<edge id=":120_0" function="internal">
		<lane id=":120_0_0" index="0" disallow="tram rail_urban rail rail_electric rail_fast ship" speed="13.89" length="13.63" shape="1995.63,723.37 1984.81,715.10" />
	</edge>
	<edge id=":120_1" function="internal">
		<lane id=":120_1_0" index="0" disallow="tram rail_urban rail rail_electric rail_fast ship" speed="3.65" length="1.44" shape="1995.63,723.37 1995.16,722.01" />
	</edge>
	<edge id=":120_6" function="internal">
		<lane id=":120_6_0" index="0" disallow="tram rail_urban rail rail_electric rail_fast ship" speed="3.65" length="3.23" shape="1995.16,722.01 1995.33,721.13 1996.13,720.74 1997.57,720.83" />
	</edge>
	<edge id=":120_2" function="internal">
		<lane id=":120_2_0" index="0" disallow="tram rail_urban rail rail_electric rail_fast ship" speed="8.23" length="31.72" shape="1999.02,717.09 1988.87,711.47 1985.25,710.22 1988.15,713.34 1997.57,720.83" />
	</edge>
	<edge id=":120_3" function="internal">
		<lane id=":120_3_0" index="0" disallow="tram rail_urban rail rail_electric rail_fast ship" speed="13.89" length="14.57" shape="1999.02,717.09 1995.53,716.15 1991.77,716.30 1988.09,716.34 1984.81,715.10" />
	</edge>
	<edge id=":120_4" function="internal">
		<lane id=":120_4_0" index="0" disallow="tram rail_urban rail rail_electric rail_fast ship" speed="13.89" length="13.61" shape="1986.76,712.56 1997.57,720.83" />
	</edge>
	<edge id=":120_5" function="internal">
		<lane id=":120_5_0" index="0" disallow="tram rail_urban rail rail_electric rail_fast ship" speed="3.65" length="1.44" shape="1986.76,712.56 1987.22,713.93" />
	</edge>
	<edge id=":120_7" function="internal">
		<lane id=":120_7_0" index="0" disallow="tram rail_urban rail rail_electric rail_fast ship" speed="3.65" length="3.23" shape="1987.22,713.93 1987.05,714.81 1986.25,715.20 1984.81,715.10" />
	</edge>
	<edge id=":122_0" function="internal">
		<lane id=":122_0_0" index="0" disallow="tram rail_urban rail rail_electric rail_fast ship" speed="3.91" length="2.52" shape="2211.73,313.54 2211.72,314.22 2211.50,314.75 2211.06,315.12 2210.41,315.33" />
	</edge>
	<edge id=":124_0" function="internal">
		<lane id=":124_0_0" index="0" disallow="tram rail_urban rail rail_electric rail_fast ship" speed="27.78" length="0.30" shape="1389.74,676.37 1389.49,676.53" />
	</edge>
	<edge id=":127_0" function="internal">
		<lane id=":127_0_0" index="0" disallow="tram rail_urban rail rail_electric rail_fast ship" speed="20.84" length="14.45" shape="1529.55,361.74 1527.32,347.46" />
	</edge>
	<edge id=":127_1" function="internal">
		<lane id=":127_1_0" index="0" disallow="tram rail_urban rail rail_electric rail_fast ship" speed="8.00" length="4.12" shape="1529.55,361.74 1529.48,357.84 1529.56,357.64" />
	</edge>
	<edge id=":127_2" function="internal">
		<lane id=":127_2_0" index="0" disallow="tram rail_urban rail rail_electric rail_fast ship" speed="3.65" length="1.44" shape="1529.55,361.74 1530.15,360.43" />
	</edge>
	<edge id=":127_9" function="internal">
		<lane id=":127_9_0" index="0" disallow="tram rail_urban rail rail_electric rail_fast ship" speed="8.00" length="10.11" shape="1529.56,357.64 1530.67,354.85 1533.14,352.79 1536.87,351.65" />
	</edge>
	<edge id=":127_10" function="internal">
		<lane id=":127_10_0" index="0" disallow="tram rail_urban rail rail_electric rail_fast ship" speed="3.65" length="3.23" shape="1530.15,360.43 1530.87,359.90 1531.73,360.17 1532.71,361.23" />
	</edge>
	<edge id=":127_3" function="internal">
		<lane id=":127_3_0" index="0" disallow="tram rail_urban rail rail_electric rail_fast ship" speed="6.50" length="9.06" shape="1537.37,354.81 1535.00,355.54 1533.43,356.85 1532.66,358.75 1532.71,361.23" />
	</edge>
	<edge id=":127_4" function="internal">
		<lane id=":127_4_0" index="0" disallow="tram rail_urban rail rail_electric rail_fast ship" speed="7.99" length="14.22" shape="1537.37,354.81 1533.47,354.86 1530.49,353.66 1528.44,351.19 1527.32,347.46" />
	</edge>
	<edge id=":127_5" function="internal">
		<lane id=":127_5_0" index="0" disallow="tram rail_urban rail rail_electric rail_fast ship" speed="3.65" length="4.67" shape="1537.37,354.81 1536.06,354.21 1535.54,353.48 1535.81,352.63 1536.87,351.65" />
	</edge>
	<edge id=":127_6" function="internal">
		<lane id=":127_6_0" index="0" disallow="tram rail_urban rail rail_electric rail_fast ship" speed="6.49" length="9.03" shape="1530.49,346.98 1531.20,349.35 1532.50,350.92 1534.39,351.68 1536.87,351.65" />
	</edge>
	<edge id=":127_7" function="internal">
		<lane id=":127_7_0" index="0" disallow="tram rail_urban rail rail_electric rail_fast ship" speed="20.84" length="14.42" shape="1530.49,346.98 1532.71,361.23" />
	</edge>
	<edge id=":127_8" function="internal">
		<lane id=":127_8_0" index="0" disallow="tram rail_urban rail rail_electric rail_fast ship" speed="3.65" length="1.44" shape="1530.49,346.98 1529.88,348.29" />
	</edge>
	<edge id=":127_11" function="internal">
		<lane id=":127_11_0" index="0" disallow="tram rail_urban rail rail_electric rail_fast ship" speed="3.65" length="3.23" shape="1529.88,348.29 1529.14,348.80 1528.29,348.53 1527.32,347.46" />
	</edge>
	<edge id=":129_0" function="internal">
		<lane id=":129_0_0" index="0" disallow="tram rail_urban rail rail_electric rail_fast ship" speed="22.22" length="0.10" shape="1916.35,1532.26 1916.41,1532.31" />
	</edge>
	<edge id=":129_1" function="internal">
		<lane id=":129_1_0" index="0" disallow="tram rail_urban rail rail_electric rail_fast ship" speed="3.65" length="2.34" shape="1916.35,1532.26 1915.98,1530.87 1916.21,1530.00" />
	</edge>
	<edge id=":129_4" function="internal">
		<lane id=":129_4_0" index="0" disallow="tram rail_urban rail rail_electric rail_fast ship" speed="3.65" length="2.34" shape="1916.21,1530.00 1917.04,1529.67 1918.47,1529.86" />
	</edge>
	<edge id=":129_2" function="internal">
		<lane id=":129_2_0" index="0" disallow="tram rail_urban rail rail_electric rail_fast ship" speed="22.22" length="0.10" shape="1918.41,1529.81 1918.47,1529.86" />
	</edge>
	<edge id=":129_3" function="internal">
		<lane id=":129_3_0" index="0" disallow="tram rail_urban rail rail_electric rail_fast ship" speed="3.65" length="2.34" shape="1918.41,1529.81 1918.85,1531.18 1918.66,1532.06" />
	</edge>
	<edge id=":129_5" function="internal">
		<lane id=":129_5_0" index="0" disallow="tram rail_urban rail rail_electric rail_fast ship" speed="3.65" length="2.34" shape="1918.66,1532.06 1917.85,1532.43 1916.41,1532.31" />
	</edge>
	<edge id=":130_0" function="internal">
		<lane id=":130_0_0" index="0" disallow="tram rail_urban rail rail_electric rail_fast ship" speed="6.08" length="9.06" shape="1837.27,1091.35 1835.79,1089.26 1834.06,1088.31 1832.11,1088.52 1829.93,1089.86" />
	</edge>
	<edge id=":130_1" function="internal">
		<lane id=":130_1_0" index="0" disallow="tram rail_urban rail rail_electric rail_fast ship" speed="9.74" length="13.08" shape="1837.27,1091.35 1835.67,1087.60 1834.95,1084.27 1835.12,1081.37 1836.17,1078.90" />
	</edge>
	<edge id=":130_2" function="internal">
		<lane id=":130_2_0" index="0" disallow="tram rail_urban rail rail_electric rail_fast ship" speed="13.89" length="12.87" shape="1838.84,1080.66 1836.82,1083.41 1834.79,1085.62 1832.55,1087.66 1829.93,1089.86" />
	</edge>
	<edge id=":130_3" function="internal">
		<lane id=":130_3_0" index="0" disallow="tram rail_urban rail rail_electric rail_fast ship" speed="3.65" length="1.44" shape="1838.84,1080.66 1837.51,1081.22" />
	</edge>
	<edge id=":130_6" function="internal">
		<lane id=":130_6_0" index="0" disallow="tram rail_urban rail rail_electric rail_fast ship" speed="3.65" length="3.23" shape="1837.51,1081.22 1836.62,1081.11 1836.17,1080.34 1836.17,1078.90" />
	</edge>
	<edge id=":130_4" function="internal">
		<lane id=":130_4_0" index="0" disallow="tram rail_urban rail rail_electric rail_fast ship" speed="13.89" length="11.94" shape="1827.87,1087.41 1830.40,1085.31 1832.43,1083.52 1834.25,1081.54 1836.17,1078.90" />
	</edge>
	<edge id=":130_5" function="internal">
		<lane id=":130_5_0" index="0" disallow="tram rail_urban rail rail_electric rail_fast ship" speed="3.65" length="1.44" shape="1827.87,1087.41 1829.31,1087.25" />
	</edge>
	<edge id=":130_7" function="internal">
		<lane id=":130_7_0" index="0" disallow="tram rail_urban rail rail_electric rail_fast ship" speed="3.65" length="3.23" shape="1829.31,1087.25 1830.13,1087.61 1830.33,1088.48 1829.93,1089.86" />
	</edge>
	<edge id=":132_0" function="internal">
		<lane id=":132_0_0" index="0" disallow="tram rail_urban rail rail_electric rail_fast ship" speed="6.34" length="9.04" shape="1767.78,1123.92 1767.04,1121.53 1765.71,1120.01 1763.80,1119.37 1761.31,1119.61" />
	</edge>
	<edge id=":132_1" function="internal">
		<lane id=":132_1_0" index="0" disallow="tram rail_urban rail rail_electric rail_fast ship" speed="27.78" length="14.77" shape="1767.78,1123.92 1765.47,1109.33" />
	</edge>
	<edge id=":132_2" function="internal">
		<lane id=":132_2_0" index="0" disallow="tram rail_urban rail rail_electric rail_fast ship" speed="8.36" length="12.72" shape="1767.78,1123.92 1767.53,1120.00 1768.15,1116.87 1769.63,1114.53 1771.98,1112.97" />
	</edge>
	<edge id=":132_3" function="internal">
		<lane id=":132_3_0" index="0" disallow="tram rail_urban rail rail_electric rail_fast ship" speed="15.28" length="12.49" shape="1773.22,1115.92 1770.10,1117.14 1767.36,1118.05 1764.57,1118.81 1761.31,1119.61" />
	</edge>
	<edge id=":132_4" function="internal">
		<lane id=":132_4_0" index="0" disallow="tram rail_urban rail rail_electric rail_fast ship" speed="6.91" length="2.90" shape="1773.22,1115.92 1770.38,1116.49" />
	</edge>
	<edge id=":132_5" function="internal">
		<lane id=":132_5_0" index="0" disallow="tram rail_urban rail rail_electric rail_fast ship" speed="3.65" length="1.44" shape="1773.22,1115.92 1771.80,1115.64" />
	</edge>
	<edge id=":132_9" function="internal">
		<lane id=":132_9_0" index="0" disallow="tram rail_urban rail rail_electric rail_fast ship" speed="6.91" length="9.31" shape="1770.38,1116.49 1768.14,1115.59 1766.50,1113.20 1765.47,1109.33" />
	</edge>
	<edge id=":132_10" function="internal">
		<lane id=":132_10_0" index="0" disallow="tram rail_urban rail rail_electric rail_fast ship" speed="3.65" length="3.23" shape="1771.80,1115.64 1771.13,1115.06 1771.19,1114.17 1771.98,1112.97" />
	</edge>
	<edge id=":132_6" function="internal">
		<lane id=":132_6_0" index="0" disallow="tram rail_urban rail rail_electric rail_fast ship" speed="6.94" length="9.75" shape="1760.55,1116.51 1763.04,1115.52 1764.70,1114.00 1765.50,1111.94 1765.47,1109.33" />
	</edge>
	<edge id=":132_7" function="internal">
		<lane id=":132_7_0" index="0" disallow="tram rail_urban rail rail_electric rail_fast ship" speed="15.28" length="11.99" shape="1760.55,1116.51 1763.74,1115.72 1766.36,1115.02 1768.93,1114.17 1771.98,1112.97" />
	</edge>
	<edge id=":132_8" function="internal">
		<lane id=":132_8_0" index="0" disallow="tram rail_urban rail rail_electric rail_fast ship" speed="3.65" length="1.44" shape="1760.55,1116.51 1761.90,1117.00" />
	</edge>
	<edge id=":132_11" function="internal">
		<lane id=":132_11_0" index="0" disallow="tram rail_urban rail rail_electric rail_fast ship" speed="3.65" length="3.23" shape="1761.90,1117.00 1762.48,1117.68 1762.28,1118.55 1761.31,1119.61" />
	</edge>
	<edge id=":133_0" function="internal">
		<lane id=":133_0_0" index="0" disallow="tram rail_urban rail rail_electric rail_fast ship" speed="6.24" length="9.05" shape="1930.07,976.34 1929.35,973.92 1928.03,972.42 1926.12,971.84 1923.62,972.18" />
	</edge>
	<edge id=":133_1" function="internal">
		<lane id=":133_1_0" index="0" disallow="tram rail_urban rail rail_electric rail_fast ship" speed="7.46" length="12.11" shape="1930.07,976.34 1929.82,972.29 1930.44,969.27 1931.90,967.29 1934.22,966.35" />
	</edge>
	<edge id=":133_2" function="internal">
		<lane id=":133_2_0" index="0" disallow="tram rail_urban rail rail_electric rail_fast ship" speed="13.89" length="11.42" shape="1934.71,969.51 1931.57,970.06 1929.12,970.62 1926.69,971.29 1923.62,972.18" />
	</edge>
	<edge id=":133_3" function="internal">
		<lane id=":133_3_0" index="0" disallow="tram rail_urban rail rail_electric rail_fast ship" speed="3.65" length="1.44" shape="1934.71,969.51 1933.40,968.90" />
	</edge>
	<edge id=":133_6" function="internal">
		<lane id=":133_6_0" index="0" disallow="tram rail_urban rail rail_electric rail_fast ship" speed="3.65" length="3.23" shape="1933.40,968.90 1932.88,968.18 1933.16,967.32 1934.22,966.35" />
	</edge>
	<edge id=":133_4" function="internal">
		<lane id=":133_4_0" index="0" disallow="tram rail_urban rail rail_electric rail_fast ship" speed="13.89" length="11.81" shape="1922.74,969.10 1925.87,968.20 1928.43,967.50 1931.02,966.91 1934.22,966.35" />
	</edge>
	<edge id=":133_5" function="internal">
		<lane id=":133_5_0" index="0" disallow="tram rail_urban rail rail_electric rail_fast ship" speed="3.65" length="1.44" shape="1922.74,969.10 1924.12,969.54" />
	</edge>
	<edge id=":133_7" function="internal">
		<lane id=":133_7_0" index="0" disallow="tram rail_urban rail rail_electric rail_fast ship" speed="3.65" length="3.23" shape="1924.12,969.54 1924.72,970.20 1924.55,971.08 1923.62,972.18" />
	</edge>
	<edge id=":134_0" function="internal">