<?xml version='1.0' encoding='utf-8'?>
<routes>
	<vType accel="3.0" decel="6.0" id="CarDefault" length="5.0" minGap="2.5" maxSpeed="50.0" sigma="0.5" />
	<route id="sr459" edges="62 129 61 6 5 161 162 361 163 164 38 134 116 115 114 113 112 74 73 72 71 70 69 68" fromJunction="154" toJunction="42" />
	<route id="r3511" edges="226 227 228 454 206 185 186 103 386 93 156 278 41 40 237 0" fromJunction="127" toJunction="117" />
	<route id="r3510" edges="62 129 360 453 416 422 419 415 348 6 5 161 162 361 163 164 38 134 116 115 114 113 112 74 73 72 71 70 69 68" fromJunction="154" toJunction="42" />
	<route id="sr458" edges="226 227 228 116 359 300 301 124 30 29 397 398 399 400 401 237 0" fromJunction="127" toJunction="117" />
	<route id="r3509" edges="279 280 281 282 283 284 285 322 393 427 425 426 25 50" fromJunction="42" toJunction="11" />
	<route id="sr460" edges="279 280 281 282 283 284 285 394 395 396 28 27 26 25 50" fromJunction="42" toJunction="11" />
	<vehicle id="v103" depart="0.0" route="r3511" type="CarDefault" departLane="random" />
	<vehicle id="v1034" depart="0.0" route="r3510" type="CarDefault" departLane="random" />
	<vehicle id="v2013" depart="0.0" route="r3509" type="CarDefault" departLane="random" />
	<vehicle id="v104" depart="3.87" route="r3511" type="CarDefault" departLane="random" />
	<vehicle id="v1035" depart="7.41" route="r3510" type="CarDefault" departLane="random" />
	<vehicle id="v2014" depart="7.41" route="r3509" type="CarDefault" departLane="random" />
	<vehicle id="v105" depart="7.74" route="r3511" type="CarDefault" departLane="random" />
	<vehicle id="v106" depart="11.61" route="r3511" type="CarDefault" departLane="random" />
	<vehicle id="v1036" depart="14.81" route="r3510" type="CarDefault" departLane="random" />
	<vehicle id="v2015" depart="14.81" route="r3509" type="CarDefault" departLane="random" />
	<vehicle id="v107" depart="15.48" route="r3511" type="CarDefault" departLane="random" />
	<vehicle id="v108" depart="19.35" route="r3511" type="CarDefault" departLane="random" />
	<vehicle id="v1037" depart="22.22" route="r3510" type="CarDefault" departLane="random" />
	<vehicle id="v2016" depart="22.22" route="r3509" type="CarDefault" departLane="random" />
	<vehicle id="v109" depart="23.23" route="r3511" type="CarDefault" departLane="random" />
	<vehicle id="v110" depart="27.1" route="r3511" type="CarDefault" departLane="random" />
	<vehicle id="v1038" depart="29.63" route="r3510" type="CarDefault" departLane="random" />
	<vehicle id="v2017" depart="29.63" route="r3509" type="CarDefault" departLane="random" />
	<vehicle id="v111" depart="30.97" route="r3511" type="CarDefault" departLane="random" />
	<vehicle id="v112" depart="34.84" route="r3511" type="CarDefault" departLane="random" />
	<vehicle id="v1039" depart="37.04" route="r3510" type="CarDefault" departLane="random" />
	<vehicle id="v2018" depart="37.04" route="r3509" type="CarDefault" departLane="random" />
	<vehicle id="v113" depart="38.71" route="r3511" type="CarDefault" departLane="random" />
	<vehicle id="v114" depart="42.58" route="r3511" type="CarDefault" departLane="random" />
	<vehicle id="v1040" depart="44.44" route="r3510" type="CarDefault" departLane="random" />
	<vehicle id="v2019" depart="44.44" route="r3509" type="CarDefault" departLane="random" />
	<vehicle id="v115" depart="46.45" route="r3511" type="CarDefault" departLane="random" />
	<vehicle id="v116" depart="50.32" route="r3511" type="CarDefault" departLane="random" />
	<vehicle id="v1041" depart="51.85" route="r3510" type="CarDefault" departLane="random" />
	<vehicle id="v2020" depart="51.85" route="r3509" type="CarDefault" departLane="random" />
	<vehicle id="v117" depart="54.19" route="r3511" type="CarDefault" departLane="random" />
	<vehicle id="v0" depart="56" route="r3511" type="CarDefault" departLane="random" />
	<vehicle id="v118" depart="58.06" route="r3511" type="CarDefault" departLane="random" />
	<vehicle id="v1042" depart="59.26" route="r3510" type="CarDefault" departLane="random" />
	<vehicle id="v2021" depart="59.26" route="r3509" type="CarDefault" departLane="random" />
	<vehicle id="v1" depart="60" route="r3511" type="CarDefault" departLane="random" />
	<vehicle id="v119" depart="61.94" route="r3511" type="CarDefault" departLane="random" />
	<vehicle id="v120" depart="65.81" route="r3511" type="CarDefault" departLane="random" />
	<vehicle id="v1043" depart="66.67" route="r3510" type="CarDefault" departLane="random" />
	<vehicle id="v2022" depart="66.67" route="r3509" type="CarDefault" departLane="random" />
	<vehicle id="v121" depart="69.68" route="r3511" type="CarDefault" departLane="random" />
	<vehicle id="v122" depart="73.55" route="r3511" type="CarDefault" departLane="random" />
	<vehicle id="v1044" depart="74.07" route="r3510" type="CarDefault" departLane="random" />
	<vehicle id="v2023" depart="74.07" route="r3509" type="CarDefault" departLane="random" />
	<vehicle id="v123" depart="77.42" route="r3511" type="CarDefault" departLane="random" />
	<vehicle id="v124" depart="81.29" route="r3511" type="CarDefault" departLane="random" />
	<vehicle id="v1045" depart="81.48" route="r3510" type="CarDefault" departLane="random" />
	<vehicle id="v2024" depart="81.48" route="r3509" type="CarDefault" departLane="random" />
	<vehicle id="v2" depart="83" route="r3511" type="CarDefault" departLane="random" />
	<vehicle id="v125" depart="85.16" route="r3511" type="CarDefault" departLane="random" />
	<vehicle id="v1046" depart="88.89" route="r3510" type="CarDefault" departLane="random" />
	<vehicle id="v2025" depart="88.89" route="r3509" type="CarDefault" departLane="random" />
	<vehicle id="v126" depart="89.03" route="r3511" type="CarDefault" departLane="random" />
	<vehicle id="v127" depart="92.9" route="r3511" type="CarDefault" departLane="random" />
	<vehicle id="v1047" depart="96.3" route="r3510" type="CarDefault" departLane="random" />
	<vehicle id="v2026" depart="96.3" route="r3509" type="CarDefault" departLane="random" />
	<vehicle id="v128" depart="96.77" route="r3511" type="CarDefault" departLane="random" />
	<vehicle id="v129" depart="100.65" route="r3511" type="CarDefault" departLane="random" />
	<vehicle id="v1048" depart="103.7" route="r3510" type="CarDefault" departLane="random" />
	<vehicle id="v2027" depart="103.7" route="r3509" type="CarDefault" departLane="random" />
	<vehicle id="v130" depart="104.52" route="r3511" type="CarDefault" departLane="random" />
	<vehicle id="v131" depart="108.39" route="r3511" type="CarDefault" departLane="random" />
	<vehicle id="v1049" depart="111.11" route="r3510" type="CarDefault" departLane="random" />
	<vehicle id="v2028" depart="111.11" route="r3509" type="CarDefault" departLane="random" />
	<vehicle id="v132" depart="112.26" route="r3511" type="CarDefault" departLane="random" />
	<vehicle id="v3" depart="115" route="r3511" type="CarDefault" departLane="random" />
	<vehicle id="v133" depart="116.13" route="r3511" type="CarDefault" departLane="random" />
	<vehicle id="v1050" depart="118.52" route="r3510" type="CarDefault" departLane="random" />
	<vehicle id="v2029" depart="118.52" route="r3509" type="CarDefault" departLane="random" />
	<vehicle id="v134" depart="120.0" route="r3511" type="CarDefault" departLane="random" />
	<vehicle id="v135" depart="123.87" route="r3511" type="CarDefault" departLane="random" />
	<vehicle id="v1051" depart="125.93" route="r3510" type="CarDefault" departLane="random" />
	<vehicle id="v2030" depart="125.93" route="r3509" type="CarDefault" departLane="random" />
	<vehicle id="v136" depart="127.74" route="r3511" type="CarDefault" departLane="random" />
	<vehicle id="v137" depart="131.61" route="r3511" type="CarDefault" departLane="random" />
	<vehicle id="v1052" depart="133.33" route="r3510" type="CarDefault" departLane="random" />
	<vehicle id="v2031" depart="133.33" route="r3509" type="CarDefault" departLane="random" />
	<vehicle id="v138" depart="135.48" route="r3511" type="CarDefault" departLane="random" />
	<vehicle id="v139" depart="139.35" route="r3511" type="CarDefault" departLane="random" />
	<vehicle id="v1053" depart="140.74" route="r3510" type="CarDefault" departLane="random" />
	<vehicle id="v2032" depart="140.74" route="r3509" type="CarDefault" departLane="random" />
	<vehicle id="v140" depart="143.23" route="r3511" type="CarDefault" departLane="random" />
	<vehicle id="v141" depart="147.1" route="r3511" type="CarDefault" departLane="random" />
	<vehicle id="v1054" depart="148.15" route="r3510" type="CarDefault" departLane="random" />
	<vehicle id="v2033" depart="148.15" route="r3509" type="CarDefault" departLane="random" />
	<vehicle id="v4" depart="149" route="r3511" type="CarDefault" departLane="random" />
	<vehicle id="v142" depart="150.97" route="r3511" type="CarDefault" departLane="random" />
	<vehicle id="v143" depart="154.84" route="r3511" type="CarDefault" departLane="random" />
	<vehicle id="v1055" depart="155.56" route="r3510" type="CarDefault" departLane="random" />
	<vehicle id="v2034" depart="155.56" route="r3509" type="CarDefault" departLane="random" />
	<vehicle id="v144" depart="158.71" route="r3511" type="CarDefault" departLane="random" />
	<vehicle id="v145" depart="162.58" route="r3511" type="CarDefault" departLane="random" />
	<vehicle id="v1056" depart="162.96" route="r3510" type="CarDefault" departLane="random" />
	<vehicle id="v2035" depart="162.96" route="r3509" type="CarDefault" departLane="random" />
	<vehicle id="v146" depart="166.45" route="r3511" type="CarDefault" departLane="random" />
	<vehicle id="v147" depart="170.32" route="r3511" type="CarDefault" departLane="random" />
	<vehicle id="v1057" depart="170.37" route="r3510" type="CarDefault" departLane="random" />
	<vehicle id="v2036" depart="170.37" route="r3509" type="CarDefault" departLane="random" />
	<vehicle id="v148" depart="174.19" route="r3511" type="CarDefault" departLane="random" />
	<vehicle id="v1058" depart="177.78" route="r3510" type="CarDefault" departLane="random" />
	<vehicle id="v2037" depart="177.78" route="r3509" type="CarDefault" departLane="random" />
	<vehicle id="v149" depart="178.06" route="r3511" type="CarDefault" departLane="random" />
	<vehicle id="v150" depart="181.94" route="r3511" type="CarDefault" departLane="random" />
	<vehicle id="v1059" depart="185.19" route="r3510" type="CarDefault" departLane="random" />
	<vehicle id="v2038" depart="185.19" route="r3509" type="CarDefault" departLane="random" />
	<vehicle id="v151" depart="185.81" route="r3511" type="CarDefault" departLane="random" />
	<vehicle id="v5" depart="186" route="r3511" type="CarDefault" departLane="random" />
	<vehicle id="v152" depart="189.68" route="r3511" type="CarDefault" departLane="random" />
	<vehicle id="v1060" depart="192.59" route="r3510" type="CarDefault" departLane="random" />
	<vehicle id="v2039" depart="192.59" route="r3509" type="CarDefault" departLane="random" />
	<vehicle id="v153" depart="193.55" route="r3511" type="CarDefault" departLane="random" />
	<vehicle id="v154" depart="197.42" route="r3511" type="CarDefault" departLane="random" />
	<vehicle id="v1061" depart="200.0" route="r3510" type="CarDefault" departLane="random" />
	<vehicle id="v2040" depart="200.0" route="r3509" type="CarDefault" departLane="random" />
	<vehicle id="v155" depart="201.29" route="r3511" type="CarDefault" departLane="random" />
	<vehicle id="v156" depart="205.16" route="r3511" type="CarDefault" departLane="random" />
	<vehicle id="v1062" depart="207.41" route="r3510" type="CarDefault" departLane="random" />
	<vehicle id="v2041" depart="207.41" route="r3509" type="CarDefault" departLane="random" />
	<vehicle id="v157" depart="209.03" route="r3511" type="CarDefault" departLane="random" />
	<vehicle id="v158" depart="212.9" route="r3511" type="CarDefault" departLane="random" />
	<vehicle id="v1063" depart="214.81" route="r3510" type="CarDefault" departLane="random" />
	<vehicle id="v2042" depart="214.81" route="r3509" type="CarDefault" departLane="random" />
	<vehicle id="v159" depart="216.77" route="r3511" type="CarDefault" departLane="random" />
	<vehicle id="v160" depart="220.65" route="r3511" type="CarDefault" departLane="random" />
	<vehicle id="v6" depart="221" route="r3511" type="CarDefault" departLane="random" />
	<vehicle id="v1064" depart="222.22" route="r3510" type="CarDefault" departLane="random" />
	<vehicle id="v2043" depart="222.22" route="r3509" type="CarDefault" departLane="random" />
	<vehicle id="v161" depart="224.52" route="r3511" type="CarDefault" departLane="random" />
	<vehicle id="v162" depart="228.39" route="r3511" type="CarDefault" departLane="random" />
	<vehicle id="v1065" depart="229.63" route="r3510" type="CarDefault" departLane="random" />
	<vehicle id="v2044" depart="229.63" route="r3509" type="CarDefault" departLane="random" />
	<vehicle id="v163" depart="232.26" route="r3511" type="CarDefault" departLane="random" />
	<vehicle id="v164" depart="236.13" route="r3511" type="CarDefault" departLane="random" />
	<vehicle id="v1066" depart="237.04" route="r3510" type="CarDefault" departLane="random" />
	<vehicle id="v2045" depart="237.04" route="r3509" type="CarDefault" departLane="random" />
	<vehicle id="v165" depart="240.0" route="r3511" type="CarDefault" departLane="random" />
	<vehicle id="v166" depart="243.87" route="r3511" type="CarDefault" departLane="random" />
	<vehicle id="v1067" depart="244.44" route="r3510" type="CarDefault" departLane="random" />
	<vehicle id="v2046" depart="244.44" route="r3509" type="CarDefault" departLane="random" />
	<vehicle id="v167" depart="247.74" route="r3511" type="CarDefault" departLane="random" />
	<vehicle id="v168" depart="251.61" route="r3511" type="CarDefault" departLane="random" />
	<vehicle id="v1068" depart="251.85" route="r3510" type="CarDefault" departLane="random" />
	<vehicle id="v2047" depart="251.85" route="r3509" type="CarDefault" departLane="random" />
	<vehicle id="v169" depart="255.48" route="r3511" type="CarDefault" departLane="random" />
	<vehicle id="v7" depart="256" route="r3511" type="CarDefault" departLane="random" />
	<vehicle id="v1069" depart="259.26" route="r3510" type="CarDefault" departLane="random" />
	<vehicle id="v2048" depart="259.26" route="r3509" type="CarDefault" departLane="random" />
	<vehicle id="v170" depart="259.35" route="r3511" type="CarDefault" departLane="random" />
	<vehicle id="v171" depart="263.23" route="r3511" type="CarDefault" departLane="random" />
	<vehicle id="v1070" depart="266.67" route="r3510" type="CarDefault" departLane="random" />
	<vehicle id="v2049" depart="266.67" route="r3509" type="CarDefault" departLane="random" />
	<vehicle id="v172" depart="267.1" route="r3511" type="CarDefault" departLane="random" />
	<vehicle id="v173" depart="270.97" route="r3511" type="CarDefault" departLane="random" />
	<vehicle id="v1071" depart="274.07" route="r3510" type="CarDefault" departLane="random" />
	<vehicle id="v2050" depart="274.07" route="r3509" type="CarDefault" departLane="random" />
	<vehicle id="v174" depart="274.84" route="r3511" type="CarDefault" departLane="random" />
	<vehicle id="v175" depart="278.71" route="r3511" type="CarDefault" departLane="random" />
	<vehicle id="v8" depart="279" route="r3511" type="CarDefault" departLane="random" />
	<vehicle id="v1072" depart="281.48" route="r3510" type="CarDefault" departLane="random" />
	<vehicle id="v2051" depart="281.48" route="r3509" type="CarDefault" departLane="random" />
	<vehicle id="v176" depart="282.58" route="r3511" type="CarDefault" departLane="random" />
	<vehicle id="v177" depart="286.45" route="r3511" type="CarDefault" departLane="random" />
	<vehicle id="v1073" depart="288.89" route="r3510" type="CarDefault" departLane="random" />
	<vehicle id="v2052" depart="288.89" route="r3509" type="CarDefault" departLane="random" />
	<vehicle id="v178" depart="290.32" route="r3511" type="CarDefault" departLane="random" />
	<vehicle id="v179" depart="294.19" route="r3511" type="CarDefault" departLane="random" />
	<vehicle id="v1074" depart="296.3" route="r3510" type="CarDefault" departLane="random" />
	<vehicle id="v2053" depart="296.3" route="r3509" type="CarDefault" departLane="random" />
	<vehicle id="v180" depart="298.06" route="r3511" type="CarDefault" departLane="random" />
	<vehicle id="v181" depart="301.94" route="r3511" type="CarDefault" departLane="random" />
	<vehicle id="v1075" depart="303.7" route="r3510" type="CarDefault" departLane="random" />
	<vehicle id="v2054" depart="303.7" route="r3509" type="CarDefault" departLane="random" />
	<vehicle id="v182" depart="305.81" route="r3511" type="CarDefault" departLane="random" />
	<vehicle id="v183" depart="309.68" route="r3511" type="CarDefault" departLane="random" />
	<vehicle id="v1076" depart="311.11" route="r3510" type="CarDefault" departLane="random" />
	<vehicle id="v2055" depart="311.11" route="r3509" type="CarDefault" departLane="random" />
	<vehicle id="v184" depart="313.55" route="r3511" type="CarDefault" departLane="random" />
	<vehicle id="v185" depart="317.42" route="r3511" type="CarDefault" departLane="random" />
	<vehicle id="v1077" depart="318.52" route="r3510" type="CarDefault" departLane="random" />
	<vehicle id="v2056" depart="318.52" route="r3509" type="CarDefault" departLane="random" />
	<vehicle id="v186" depart="321.29" route="r3511" type="CarDefault" departLane="random" />
	<vehicle id="v187" depart="325.16" route="r3511" type="CarDefault" departLane="random" />
	<vehicle id="v1078" depart="325.93" route="r3510" type="CarDefault" departLane="random" />
	<vehicle id="v2057" depart="325.93" route="r3509" type="CarDefault" departLane="random" />
	<vehicle id="v188" depart="329.03" route="r3511" type="CarDefault" departLane="random" />
	<vehicle id="v189" depart="332.9" route="r3511" type="CarDefault" departLane="random" />
	<vehicle id="v1079" depart="333.33" route="r3510" type="CarDefault" departLane="random" />
	<vehicle id="v2058" depart="333.33" route="r3509" type="CarDefault" departLane="random" />
	<vehicle id="v190" depart="336.77" route="r3511" type="CarDefault" departLane="random" />
	<vehicle id="v191" depart="340.65" route="r3511" type="CarDefault" departLane="random" />
	<vehicle id="v1080" depart="340.74" route="r3510" type="CarDefault" departLane="random" />
	<vehicle id="v2059" depart="340.74" route="r3509" type="CarDefault" departLane="random" />
	<vehicle id="v192" depart="344.52" route="r3511" type="CarDefault" departLane="random" />
	<vehicle id="v1081" depart="348.15" route="r3510" type="CarDefault" departLane="random" />
	<vehicle id="v2060" depart="348.15" route="r3509" type="CarDefault" departLane="random" />
	<vehicle id="v193" depart="348.39" route="r3511" type="CarDefault" departLane="random" />
	<vehicle id="v194" depart="352.26" route="r3511" type="CarDefault" departLane="random" />
	<vehicle id="v9" depart="353" route="r3511" type="CarDefault" departLane="random" />
	<vehicle id="v1082" depart="355.56" route="r3510" type="CarDefault" departLane="random" />
	<vehicle id="v2061" depart="355.56" route="r3509" type="CarDefault" departLane="random" />
	<vehicle id="v195" depart="356.13" route="r3511" type="CarDefault" departLane="random" />
	<vehicle id="v196" depart="360.0" route="r3511" type="CarDefault" departLane="random" />
	<vehicle id="v1083" depart="362.96" route="r3510" type="CarDefault" departLane="random" />
	<vehicle id="v2062" depart="362.96" route="r3509" type="CarDefault" departLane="random" />
	<vehicle id="v197" depart="363.87" route="r3511" type="CarDefault" departLane="random" />
	<vehicle id="v10" depart="366" route="r3511" type="CarDefault" departLane="random" />
	<vehicle id="v198" depart="367.74" route="r3511" type="CarDefault" departLane="random" />
	<vehicle id="v1084" depart="370.37" route="r3510" type="CarDefault" departLane="random" />
	<vehicle id="v2063" depart="370.37" route="r3509" type="CarDefault" departLane="random" />
	<vehicle id="v199" depart="371.61" route="r3511" type="CarDefault" departLane="random" />
	<vehicle id="v200" depart="375.48" route="r3511" type="CarDefault" departLane="random" />
	<vehicle id="v1085" depart="377.78" route="r3510" type="CarDefault" departLane="random" />
	<vehicle id="v2064" depart="377.78" route="r3509" type="CarDefault" departLane="random" />
	<vehicle id="v201" depart="379.35" route="r3511" type="CarDefault" departLane="random" />
	<vehicle id="v202" depart="383.23" route="r3511" type="CarDefault" departLane="random" />
	<vehicle id="v1086" depart="385.19" route="r3510" type="CarDefault" departLane="random" />
	<vehicle id="v2065" depart="385.19" route="r3509" type="CarDefault" departLane="random" />
	<vehicle id="v203" depart="387.1" route="r3511" type="CarDefault" departLane="random" />
	<vehicle id="v204" depart="390.97" route="r3511" type="CarDefault" departLane="random" />
	<vehicle id="v11" depart="392" route="r3511" type="CarDefault" departLane="random" />
	<vehicle id="v1087" depart="392.59" route="r3510" type="CarDefault" departLane="random" />
	<vehicle id="v2066" depart="392.59" route="r3509" type="CarDefault" departLane="random" />
	<vehicle id="v205" depart="394.84" route="r3511" type="CarDefault" departLane="random" />
	<vehicle id="v206" depart="398.71" route="r3511" type="CarDefault" departLane="random" />
	<vehicle id="v1088" depart="400.0" route="r3510" type="CarDefault" departLane="random" />
	<vehicle id="v2067" depart="400.0" route="r3509" type="CarDefault" departLane="random" />
	<vehicle id="v207" depart="402.58" route="r3511" type="CarDefault" departLane="random" />
	<vehicle id="v208" depart="406.45" route="r3511" type="CarDefault" departLane="random" />
	<vehicle id="v1089" depart="407.41" route="r3510" type="CarDefault" departLane="random" />
	<vehicle id="v2068" depart="407.41" route="r3509" type="CarDefault" departLane="random" />
	<vehicle id="v209" depart="410.32" route="r3511" type="CarDefault" departLane="random" />
	<vehicle id="v210" depart="414.19" route="r3511" type="CarDefault" departLane="random" />
	<vehicle id="v1090" depart="414.81" route="r3510" type="CarDefault" departLane="random" />
	<vehicle id="v2069" depart="414.81" route="r3509" type="CarDefault" departLane="random" />
	<vehicle id="v12" depart="418" route="r3511" type="CarDefault" departLane="random" />
	<vehicle id="v211" depart="418.06" route="r3511" type="CarDefault" departLane="random" />
	<vehicle id="v212" depart="421.94" route="r3511" type="CarDefault" departLane="random" />
	<vehicle id="v1091" depart="422.22" route="r3510" type="CarDefault" departLane="random" />
	<vehicle id="v2070" depart="422.22" route="r3509" type="CarDefault" departLane="random" />
	<vehicle id="v13" depart="425" route="r3511" type="CarDefault" departLane="random" />
	<vehicle id="v213" depart="425.81" route="r3511" type="CarDefault" departLane="random" />
	<vehicle id="v1092" depart="429.63" route="r3510" type="CarDefault" departLane="random" />
	<vehicle id="v2071" depart="429.63" route="r3509" type="CarDefault" departLane="random" />
	<vehicle id="v214" depart="429.68" route="r3511" type="CarDefault" departLane="random" />
	<vehicle id="v215" depart="433.55" route="r3511" type="CarDefault" departLane="random" />
	<vehicle id="v1093" depart="437.04" route="r3510" type="CarDefault" departLane="random" />
	<vehicle id="v2072" depart="437.04" route="r3509" type="CarDefault" departLane="random" />
	<vehicle id="v216" depart="437.42" route="r3511" type="CarDefault" departLane="random" />
	<vehicle id="v217" depart="441.29" route="r3511" type="CarDefault" departLane="random" />
	<vehicle id="v1094" depart="444.44" route="r3510" type="CarDefault" departLane="random" />
	<vehicle id="v2073" depart="444.44" route="r3509" type="CarDefault" departLane="random" />
	<vehicle id="v218" depart="445.16" route="r3511" type="CarDefault" departLane="random" />
	<vehicle id="v219" depart="449.03" route="r3511" type="CarDefault" departLane="random" />
	<vehicle id="v1095" depart="451.85" route="r3510" type="CarDefault" departLane="random" />
	<vehicle id="v2074" depart="451.85" route="r3509" type="CarDefault" departLane="random" />
	<vehicle id="v220" depart="452.9" route="r3511" type="CarDefault" departLane="random" />
	<vehicle id="v221" depart="456.77" route="r3511" type="CarDefault" departLane="random" />
	<vehicle id="v1096" depart="459.26" route="r3510" type="CarDefault" departLane="random" />
	<vehicle id="v2075" depart="459.26" route="r3509" type="CarDefault" departLane="random" />
	<vehicle id="v222" depart="460.65" route="r3511" type="CarDefault" departLane="random" />
	<vehicle id="v223" depart="464.52" route="r3511" type="CarDefault" departLane="random" />
	<vehicle id="v1097" depart="466.67" route="r3510" type="CarDefault" departLane="random" />
	<vehicle id="v2076" depart="466.67" route="r3509" type="CarDefault" departLane="random" />
	<vehicle id="v224" depart="468.39" route="r3511" type="CarDefault" departLane="random" />
	<vehicle id="v225" depart="472.26" route="r3511" type="CarDefault" departLane="random" />
	<vehicle id="v1098" depart="474.07" route="r3510" type="CarDefault" departLane="random" />
	<vehicle id="v2077" depart="474.07" route="r3509" type="CarDefault" departLane="random" />
	<vehicle id="v226" depart="476.13" route="r3511" type="CarDefault" departLane="random" />
	<vehicle id="v14" depart="478" route="r3511" type="CarDefault" departLane="random" />
	<vehicle id="v227" depart="480.0" route="r3511" type="CarDefault" departLane="random" />
	<vehicle id="v1099" depart="481.48" route="r3510" type="CarDefault" departLane="random" />
	<vehicle id="v2078" depart="481.48" route="r3509" type="CarDefault" departLane="random" />
	<vehicle id="v228" depart="483.87" route="r3511" type="CarDefault" departLane="random" />
	<vehicle id="v229" depart="487.74" route="r3511" type="CarDefault" departLane="random" />
	<vehicle id="v1100" depart="488.89" route="r3510" type="CarDefault" departLane="random" />
	<vehicle id="v2079" depart="488.89" route="r3509" type="CarDefault" departLane="random" />
	<vehicle id="v230" depart="491.61" route="r3511" type="CarDefault" departLane="random" />
	<vehicle id="v15" depart="495" route="r3511" type="CarDefault" departLane="random" />
	<vehicle id="v231" depart="495.48" route="r3511" type="CarDefault" departLane="random" />
	<vehicle id="v1101" depart="496.3" route="r3510" type="CarDefault" departLane="random" />
	<vehicle id="v2080" depart="496.3" route="r3509" type="CarDefault" departLane="random" />
	<vehicle id="v232" depart="499.35" route="r3511" type="CarDefault" departLane="random" />
	<vehicle id="v233" depart="503.23" route="r3511" type="CarDefault" departLane="random" />
	<vehicle id="v1102" depart="503.7" route="r3510" type="CarDefault" departLane="random" />
	<vehicle id="v2081" depart="503.7" route="r3509" type="CarDefault" departLane="random" />
	<vehicle id="v234" depart="507.1" route="r3511" type="CarDefault" departLane="random" />
	<vehicle id="v235" depart="510.97" route="r3511" type="CarDefault" departLane="random" />
	<vehicle id="v1103" depart="511.11" route="r3510" type="CarDefault" departLane="random" />
	<vehicle id="v2082" depart="511.11" route="r3509" type="CarDefault" departLane="random" />
	<vehicle id="v236" depart="514.84" route="r3511" type="CarDefault" departLane="random" />
	<vehicle id="v1104" depart="518.52" route="r3510" type="CarDefault" departLane="random" />
	<vehicle id="v2083" depart="518.52" route="r3509" type="CarDefault" departLane="random" />
	<vehicle id="v237" depart="518.71" route="r3511" type="CarDefault" departLane="random" />
	<vehicle id="v238" depart="522.58" route="r3511" type="CarDefault" departLane="random" />
	<vehicle id="v16" depart="525" route="r3511" type="CarDefault" departLane="random" />
	<vehicle id="v1105" depart="525.93" route="r3510" type="CarDefault" departLane="random" />
	<vehicle id="v2084" depart="525.93" route="r3509" type="CarDefault" departLane="random" />
	<vehicle id="v239" depart="526.45" route="r3511" type="CarDefault" departLane="random" />
	<vehicle id="v240" depart="530.32" route="r3511" type="CarDefault" departLane="random" />
	<vehicle id="v1106" depart="533.33" route="r3510" type="CarDefault" departLane="random" />
	<vehicle id="v2085" depart="533.33" route="r3509" type="CarDefault" departLane="random" />
	<vehicle id="v241" depart="534.19" route="r3511" type="CarDefault" departLane="random" />
	<vehicle id="v242" depart="538.06" route="r3511" type="CarDefault" departLane="random" />
	<vehicle id="v1107" depart="540.74" route="r3510" type="CarDefault" departLane="random" />
	<vehicle id="v2086" depart="540.74" route="r3509" type="CarDefault" departLane="random" />
	<vehicle id="v243" depart="541.94" route="r3511" type="CarDefault" departLane="random" />
	<vehicle id="v244" depart="545.81" route="r3511" type="CarDefault" departLane="random" />
	<vehicle id="v1108" depart="548.15" route="r3510" type="CarDefault" departLane="random" />
	<vehicle id="v2087" depart="548.15" route="r3509" type="CarDefault" departLane="random" />
	<vehicle id="v245" depart="549.68" route="r3511" type="CarDefault" departLane="random" />
	<vehicle id="v246" depart="553.55" route="r3511" type="CarDefault" departLane="random" />
	<vehicle id="v1109" depart="555.56" route="r3510" type="CarDefault" departLane="random" />
	<vehicle id="v2088" depart="555.56" route="r3509" type="CarDefault" departLane="random" />
	<vehicle id="v247" depart="557.42" route="r3511" type="CarDefault" departLane="random" />
	<vehicle id="v248" depart="561.29" route="r3511" type="CarDefault" departLane="random" />
	<vehicle id="v1110" depart="562.96" route="r3510" type="CarDefault" departLane="random" />
	<vehicle id="v2089" depart="562.96" route="r3509" type="CarDefault" departLane="random" />
	<vehicle id="v249" depart="565.16" route="r3511" type="CarDefault" departLane="random" />
	<vehicle id="v250" depart="569.03" route="r3511" type="CarDefault" departLane="random" />