<?xml version="1.0" encoding="UTF-8"?>

<!-- generated on 2022-10-03 11:58:06 by Eclipse SUMO netconvert Version 1.12.0
<configuration xmlns:xsi="http://www.w3.org/2001/XMLSchema-instance" xsi:noNamespaceSchemaLocation="http://sumo.dlr.de/xsd/netconvertConfiguration.xsd">

    <input>
        <sumo-net-file value="/home/svadlmat/UTC/utc/data/maps/sumo/Sydney.net.xml"/>
    </input>

    <output>
        <output-file value="/home/svadlmat/UTC/utc/data/maps/sumo/11_27_53_Sydney_default_sg.net.xml"/>
    </output>

    <processing>
        <geometry.min-radius.fix.railways value="false"/>
        <geometry.max-grade.fix value="false"/>
        <offset.disable-normalization value="true"/>
        <lefthand value="false"/>
    </processing>

    <edge_removal>
        <keep-edges.explicit value="417,404,51,837,547,479,355,664,885,569,113,223,504,65,398,179,204,425,219,292,796,867,591,1020,527,488,645,155,788,48,889,39,864,53,512,375,549,730,84,951,366,290,661,955,345,616,285,166,249,927,248,212,333,991,101,511,627,698,481,583,1021,988,295,180,1003,10,146,632,1010,535,712,968,203,76,123,615,886,220,133,933,177,671,972,286,135,811,140,159,954,130,666,314,410,989,332,578,485,766,648,424,148,423,594,836,169,655,1024,618,267,12,644,400,487,397,953,944,791,765,929,207,338,348,230,768,890,190,960,1033,551,145,413,622,399,764,74,432,714,978,124,977,305,628,699,395,1017,457,853,658,2,357,587,831,144,151,82,657,1005,34,794,445,641,957,709,797,617,132,924,741,217,963,696,266,139,489,44,127,342,649,358,992,891,950,161,426,1058,997,750,153,254,69,906,686,916,1004,147,875,1027,335,175,268,403,102,156,722,742,136,176,745,935,138,394,406,9,858,209,221,812,150,115,296,129,222,480,787,975,1038,1018,168,662,786,600,825,250,959,752,352,412,448,608,1006,921,724,126,47,165,143,341,545,253,71,964,651,961,669,721,279,1028,93,468,962,334,224,229,920,759,679,541,842,382,232,807,907,898,546,695,218,214,548,550,233,643,99,614,634,985,315,772,516,762,245,280,49,792,670,621,723,769,98,830,771,211,35,784,494,1031,521,595,262,725,16,520,312,371,447,592,215,50,894,202,744,1007,128,763,216,208,869,500,543,749,415,656,38,652,449,878,19,710,633,1002,650,170,936,659,1023,263,930,942,5,513,469,269,75,356,411,430,1022,11,577,213,154,419,405,21,684,945,952,994,923,806,86,865,294,751,396,304,919,205,538,131,863,967,210,872,134,289,157,20,937,932,934,237,1039,711,832,103,663,201,455,336,1030,585,427,660,922,946,866,870,56,428,110,707,307,252,353,228,505,563,1041,599,1012,450,236,433,1013,331,244,62,798,484,905,189,915,158,361,681,706,112,384,619,6,969,552,439,471,152,956,482,774,476,46,118,760,795,958,502,859,340,55,114,717,339,107,97,635,311,931,1026,117,475,92,910,498,984,17,647,142,83,1032,675,278,446,313,928,77,206,990,54,323,558,708,926,571,1019,808,981,111,871,976,15,673,3,87,372,284,716,584,18,192,7,653,743,385,52,283,483,884,680,125,104,89,609,438,642,789,495,970,979,354,351,746,367,407,514,636,943,499,539,14,770,317,416,727,758,13"/>
    </edge_removal>

    <junctions>
        <no-turnarounds value="true"/>
        <junctions.corner-detail value="5"/>
        <junctions.limit-turn-speed value="5.5"/>
        <rectangular-lane-cut value="false"/>
    </junctions>

    <pedestrian>
        <walkingareas value="false"/>
    </pedestrian>

    <report>
        <aggregate-warnings value="5"/>
    </report>

</configuration>
-->

<net version="1.9" junctionCornerDetail="5" limitTurnSpeed="5.50" xmlns:xsi="http://www.w3.org/2001/XMLSchema-instance" xsi:noNamespaceSchemaLocation="http://sumo.dlr.de/xsd/net_file.xsd">

    <location netOffset="-336586.08,3754670.31" convBoundary="0.00,12.34,2547.76,2154.71" origBoundary="151.232525,-33.920080,151.266296,-33.899237" projParameter="+proj=utm +zone=56 +ellps=WGS84 +datum=WGS84 +units=m +no_defs"/>

    <type id="highway.bridleway" priority="1" numLanes="1" speed="2.78" allow="pedestrian" oneway="1" width="2.00"/>
    <type id="highway.bus_guideway" priority="1" numLanes="1" speed="27.78" allow="bus" oneway="1"/>
    <type id="highway.cycleway" priority="1" numLanes="1" speed="8.33" allow="bicycle" oneway="0" width="1.00"/>
    <type id="highway.footway" priority="1" numLanes="1" speed="2.78" allow="pedestrian" oneway="1" width="2.00"/>
    <type id="highway.ford" priority="1" numLanes="1" speed="2.78" allow="army" oneway="0"/>
    <type id="highway.living_street" priority="2" numLanes="1" speed="2.78" disallow="tram rail_urban rail rail_electric rail_fast ship" oneway="0"/>
    <type id="highway.motorway" priority="14" numLanes="2" speed="39.44" allow="private emergency authority army vip passenger hov taxi bus coach delivery truck trailer motorcycle evehicle custom1 custom2" oneway="1"/>
    <type id="highway.motorway_link" priority="9" numLanes="1" speed="22.22" allow="private emergency authority army vip passenger hov taxi bus coach delivery truck trailer motorcycle evehicle custom1 custom2" oneway="1"/>
    <type id="highway.path" priority="1" numLanes="1" speed="2.78" allow="pedestrian bicycle" oneway="0" width="2.00"/>
    <type id="highway.pedestrian" priority="1" numLanes="1" speed="2.78" allow="pedestrian" oneway="1" width="2.00"/>
    <type id="highway.primary" priority="12" numLanes="2" speed="27.78" disallow="tram rail_urban rail rail_electric rail_fast ship" oneway="0"/>
    <type id="highway.primary_link" priority="7" numLanes="1" speed="22.22" disallow="tram rail_urban rail rail_electric rail_fast ship" oneway="0"/>
    <type id="highway.raceway" priority="15" numLanes="2" speed="83.33" allow="vip" oneway="0"/>
    <type id="highway.residential" priority="3" numLanes="1" speed="13.89" disallow="tram rail_urban rail rail_electric rail_fast ship" oneway="0"/>
    <type id="highway.secondary" priority="11" numLanes="1" speed="27.78" disallow="tram rail_urban rail rail_electric rail_fast ship" oneway="0"/>
    <type id="highway.secondary_link" priority="6" numLanes="1" speed="22.22" disallow="tram rail_urban rail rail_electric rail_fast ship" oneway="0"/>
    <type id="highway.service" priority="1" numLanes="1" speed="5.56" allow="pedestrian delivery bicycle" oneway="0"/>
    <type id="highway.stairs" priority="1" numLanes="1" speed="1.39" allow="pedestrian" oneway="1" width="2.00"/>
    <type id="highway.step" priority="1" numLanes="1" speed="1.39" allow="pedestrian" oneway="1" width="2.00"/>
    <type id="highway.steps" priority="1" numLanes="1" speed="1.39" allow="pedestrian" oneway="1" width="2.00"/>
    <type id="highway.tertiary" priority="10" numLanes="1" speed="22.22" disallow="tram rail_urban rail rail_electric rail_fast ship" oneway="0"/>
    <type id="highway.tertiary_link" priority="5" numLanes="1" speed="22.22" disallow="tram rail_urban rail rail_electric rail_fast ship" oneway="0"/>
    <type id="highway.track" priority="1" numLanes="1" speed="5.56" allow="pedestrian motorcycle moped bicycle" oneway="0"/>
    <type id="highway.trunk" priority="13" numLanes="2" speed="27.78" disallow="pedestrian bicycle tram rail_urban rail rail_electric rail_fast ship" oneway="0"/>
    <type id="highway.trunk_link" priority="8" numLanes="1" speed="22.22" disallow="pedestrian bicycle tram rail_urban rail rail_electric rail_fast ship" oneway="0"/>
    <type id="highway.unclassified" priority="4" numLanes="1" speed="13.89" disallow="tram rail_urban rail rail_electric rail_fast ship" oneway="0"/>
    <type id="highway.unsurfaced" priority="1" numLanes="1" speed="8.33" disallow="tram rail_urban rail rail_electric rail_fast ship" oneway="0"/>
    <type id="railway.highspeed" priority="21" numLanes="1" speed="69.44" allow="rail_fast" oneway="1"/>
    <type id="railway.light_rail" priority="19" numLanes="1" speed="27.78" allow="rail_urban" oneway="1"/>
    <type id="railway.preserved" priority="16" numLanes="1" speed="27.78" allow="rail" oneway="1"/>
    <type id="railway.rail" priority="20" numLanes="1" speed="44.44" allow="rail" oneway="1"/>
    <type id="railway.subway" priority="18" numLanes="1" speed="27.78" allow="rail_urban" oneway="1"/>
    <type id="railway.tram" priority="17" numLanes="1" speed="13.89" allow="tram" oneway="1"/>

    <edge id=":1_0" function="internal">
        <lane id=":1_0_0" index="0" disallow="tram rail_urban rail rail_electric rail_fast ship" speed="6.12" length="10.17" shape="1580.73,1030.25 1577.77,1030.37 1575.85,1029.47 1574.98,1027.54 1575.15,1024.58"/>
    </edge>
    <edge id=":1_1" function="internal">
        <lane id=":1_1_0" index="0" disallow="tram rail_urban rail rail_electric rail_fast ship" speed="3.65" length="1.44" shape="1580.73,1030.25 1579.40,1029.68"/>
    </edge>
    <edge id=":1_4" function="internal">
        <lane id=":1_4_0" index="0" disallow="tram rail_urban rail rail_electric rail_fast ship" speed="3.65" length="3.23" shape="1579.40,1029.68 1578.87,1028.96 1579.11,1028.10 1580.15,1027.10"/>
    </edge>
    <edge id=":1_2" function="internal">
        <lane id=":1_2_0" index="0" disallow="tram rail_urban rail rail_electric rail_fast ship" speed="3.93" length="3.39" shape="1578.29,1025.21 1578.23,1026.20 1578.52,1026.84 1579.16,1027.14 1580.15,1027.10"/>
    </edge>
    <edge id=":1_3" function="internal">
        <lane id=":1_3_0" index="0" disallow="tram rail_urban rail rail_electric rail_fast ship" speed="3.65" length="1.31" shape="1578.29,1025.21 1577.37,1026.13"/>
    </edge>
    <edge id=":1_5" function="internal">
        <lane id=":1_5_0" index="0" disallow="tram rail_urban rail rail_electric rail_fast ship" speed="3.65" length="3.37" shape="1577.37,1026.13 1577.27,1026.23 1576.41,1026.46 1575.70,1025.91 1575.15,1024.58"/>
    </edge>
    <edge id=":10_0" function="internal">
        <lane id=":10_0_0" index="0" disallow="tram rail_urban rail rail_electric rail_fast ship" speed="4.43" length="6.48" shape="2087.99,1333.96 2089.93,1332.90 2090.49,1332.03 2089.70,1331.37 2087.54,1330.92"/>
    </edge>
    <edge id=":101_0" function="internal">
        <lane id=":101_0_0" index="0" disallow="tram rail_urban rail rail_electric rail_fast ship" speed="7.33" length="2.51" shape="1708.46,592.73 1705.95,592.58"/>
    </edge>
    <edge id=":101_1" function="internal">
        <lane id=":101_1_0" index="0" disallow="tram rail_urban rail rail_electric rail_fast ship" speed="3.65" length="1.44" shape="1708.46,592.73 1707.14,592.13"/>
    </edge>
    <edge id=":101_4" function="internal">
        <lane id=":101_4_0" index="0" disallow="tram rail_urban rail rail_electric rail_fast ship" speed="7.33" length="9.23" shape="1705.95,592.58 1703.96,591.23 1702.48,588.68 1701.52,584.93"/>
    </edge>
    <edge id=":101_5" function="internal">
        <lane id=":101_5_0" index="0" disallow="tram rail_urban rail rail_electric rail_fast ship" speed="3.65" length="3.23" shape="1707.14,592.13 1706.62,591.41 1706.89,590.55 1707.94,589.57"/>
    </edge>
    <edge id=":101_2" function="internal">
        <lane id=":101_2_0" index="0" disallow="tram rail_urban rail rail_electric rail_fast ship" speed="6.50" length="9.03" shape="1696.88,591.33 1699.24,590.60 1700.80,589.29 1701.56,587.40 1701.52,584.93"/>
    </edge>
    <edge id=":101_3" function="internal">
        <lane id=":101_3_0" index="0" disallow="tram rail_urban rail rail_electric rail_fast ship" speed="22.22" length="11.21" shape="1696.88,591.33 1707.94,589.57"/>
    </edge>
    <edge id=":102_0" function="internal">
        <lane id=":102_0_0" index="0" disallow="tram rail_urban rail rail_electric rail_fast ship" speed="6.07" length="7.88" shape="1142.76,480.26 1142.84,482.43 1142.21,484.09 1140.86,485.23 1138.79,485.87"/>
    </edge>
    <edge id=":102_1" function="internal">
        <lane id=":102_1_0" index="0" disallow="tram rail_urban rail rail_electric rail_fast ship" speed="3.65" length="1.44" shape="1142.76,480.26 1142.19,481.59"/>
    </edge>
    <edge id=":102_4" function="internal">
        <lane id=":102_4_0" index="0" disallow="tram rail_urban rail rail_electric rail_fast ship" speed="3.65" length="3.23" shape="1142.19,481.59 1141.47,482.13 1140.61,481.88 1139.61,480.84"/>
    </edge>
    <edge id=":102_2" function="internal">
        <lane id=":102_2_0" index="0" disallow="tram rail_urban rail rail_electric rail_fast ship" speed="3.90" length="2.63" shape="1138.29,482.71 1138.98,482.50 1139.43,482.12 1139.64,481.57 1139.61,480.84"/>
    </edge>
    <edge id=":102_3" function="internal">
        <lane id=":102_3_0" index="0" disallow="tram rail_urban rail rail_electric rail_fast ship" speed="3.65" length="1.30" shape="1138.29,482.71 1139.47,483.26"/>
    </edge>
    <edge id=":102_5" function="internal">
        <lane id=":102_5_0" index="0" disallow="tram rail_urban rail rail_electric rail_fast ship" speed="3.65" length="3.37" shape="1139.47,483.26 1139.60,483.32 1140.12,484.04 1139.85,484.90 1138.79,485.87"/>
    </edge>
    <edge id=":103_0" function="internal">
        <lane id=":103_0_0" index="0" disallow="tram rail_urban rail rail_electric rail_fast ship" speed="6.45" length="9.03" shape="2200.48,253.84 2199.80,251.45 2198.52,249.87 2196.64,249.10 2194.15,249.15"/>
    </edge>
    <edge id=":103_1" function="internal">
        <lane id=":103_1_0" index="0" disallow="tram rail_urban rail rail_electric rail_fast ship" speed="8.09" length="14.23" shape="2200.48,253.84 2200.50,249.91 2201.73,246.91 2204.18,244.83 2207.85,243.67"/>
    </edge>
    <edge id=":103_2" function="internal">
        <lane id=":103_2_0" index="0" disallow="tram rail_urban rail rail_electric rail_fast ship" speed="3.65" length="4.67" shape="2200.48,253.84 2201.11,252.54 2201.85,252.04 2202.70,252.33 2203.65,253.41"/>
    </edge>
    <edge id=":103_3" function="internal">
        <lane id=":103_3_0" index="0" disallow="tram rail_urban rail rail_electric rail_fast ship" speed="6.62" length="9.17" shape="2208.37,246.83 2206.02,247.58 2204.45,248.92 2203.66,250.87 2203.65,253.41"/>
    </edge>
    <edge id=":103_4" function="internal">
        <lane id=":103_4_0" index="0" disallow="tram rail_urban rail rail_electric rail_fast ship" speed="13.89" length="14.40" shape="2208.37,246.83 2194.15,249.15"/>
    </edge>
    <edge id=":103_5" function="internal">
        <lane id=":103_5_0" index="0" disallow="tram rail_urban rail rail_electric rail_fast ship" speed="3.65" length="1.44" shape="2208.37,246.83 2207.05,246.24"/>
    </edge>
    <edge id=":103_9" function="internal">
        <lane id=":103_9_0" index="0" disallow="tram rail_urban rail rail_electric rail_fast ship" speed="3.65" length="3.23" shape="2207.05,246.24 2206.53,245.51 2206.80,244.66 2207.85,243.67"/>
    </edge>
    <edge id=":103_6" function="internal">
        <lane id=":103_6_0" index="0" disallow="tram rail_urban rail rail_electric rail_fast ship" speed="13.89" length="14.40" shape="2193.64,245.99 2207.85,243.67"/>
    </edge>
    <edge id=":103_7" function="internal">
        <lane id=":103_7_0" index="0" disallow="tram rail_urban rail rail_electric rail_fast ship" speed="7.95" length="4.09" shape="2193.64,245.99 2197.57,245.92 2197.71,245.97"/>
    </edge>
    <edge id=":103_8" function="internal">
        <lane id=":103_8_0" index="0" disallow="tram rail_urban rail rail_electric rail_fast ship" speed="3.65" length="1.44" shape="2193.64,245.99 2194.95,246.59"/>
    </edge>
    <edge id=":103_10" function="internal">
        <lane id=":103_10_0" index="0" disallow="tram rail_urban rail rail_electric rail_fast ship" speed="7.95" length="10.21" shape="2197.71,245.97 2200.55,247.13 2202.58,249.63 2203.65,253.41"/>
    </edge>
    <edge id=":103_11" function="internal">
        <lane id=":103_11_0" index="0" disallow="tram rail_urban rail rail_electric rail_fast ship" speed="3.65" length="3.23" shape="2194.95,246.59 2195.48,247.31 2195.21,248.17 2194.15,249.15"/>
    </edge>
    <edge id=":104_0" function="internal">
        <lane id=":104_0_0" index="0" disallow="tram rail_urban rail rail_electric rail_fast ship" speed="6.53" length="9.06" shape="1534.39,391.73 1533.65,389.37 1532.33,387.81 1530.43,387.05 1527.94,387.09"/>
    </edge>
    <edge id=":104_1" function="internal">
        <lane id=":104_1_0" index="0" disallow="tram rail_urban rail rail_electric rail_fast ship" speed="13.89" length="14.40" shape="1534.39,391.73 1532.09,377.52"/>
    </edge>
    <edge id=":104_2" function="internal">
        <lane id=":104_2_0" index="0" disallow="tram rail_urban rail rail_electric rail_fast ship" speed="7.99" length="4.06" shape="1535.25,377.01 1535.32,380.91 1535.26,381.06"/>
    </edge>
    <edge id=":104_3" function="internal">
        <lane id=":104_3_0" index="0" disallow="tram rail_urban rail rail_electric rail_fast ship" speed="3.65" length="1.44" shape="1535.25,377.01 1534.65,378.32"/>
    </edge>
    <edge id=":104_6" function="internal">
        <lane id=":104_6_0" index="0" disallow="tram rail_urban rail rail_electric rail_fast ship" speed="7.99" length="10.15" shape="1535.26,381.06 1534.13,383.89 1531.66,385.95 1527.94,387.09"/>
    </edge>
    <edge id=":104_7" function="internal">
        <lane id=":104_7_0" index="0" disallow="tram rail_urban rail rail_electric rail_fast ship" speed="3.65" length="3.23" shape="1534.65,378.32 1533.93,378.85 1533.07,378.58 1532.09,377.52"/>
    </edge>
    <edge id=":104_4" function="internal">
        <lane id=":104_4_0" index="0" disallow="tram rail_urban rail rail_electric rail_fast ship" speed="6.50" length="9.03" shape="1527.44,383.92 1529.81,383.20 1531.38,381.89 1532.14,380.00 1532.09,377.52"/>
    </edge>
    <edge id=":104_5" function="internal">
        <lane id=":104_5_0" index="0" disallow="tram rail_urban rail rail_electric rail_fast ship" speed="3.65" length="4.67" shape="1527.44,383.92 1528.75,384.53 1529.27,385.26 1529.00,386.11 1527.94,387.09"/>
    </edge>
    <edge id=":105_0" function="internal">
        <lane id=":105_0_0" index="0" disallow="tram rail_urban rail rail_electric rail_fast ship" speed="13.89" length="14.41" shape="2231.81,381.26 2217.60,383.59"/>
    </edge>
    <edge id=":105_1" function="internal">
        <lane id=":105_1_0" index="0" disallow="tram rail_urban rail rail_electric rail_fast ship" speed="8.17" length="3.99" shape="2231.81,381.26 2228.00,381.32 2227.84,381.26"/>
    </edge>
    <edge id=":105_2" function="internal">
        <lane id=":105_2_0" index="0" disallow="tram rail_urban rail rail_electric rail_fast ship" speed="3.65" length="1.44" shape="2231.81,381.26 2230.50,380.66"/>
    </edge>
    <edge id=":105_9" function="internal">
        <lane id=":105_9_0" index="0" disallow="tram rail_urban rail rail_electric rail_fast ship" speed="8.17" length="10.28" shape="2227.84,381.26 2225.00,380.13 2222.83,377.67 2221.48,373.96"/>
    </edge>
    <edge id=":105_10" function="internal">
        <lane id=":105_10_0" index="0" disallow="tram rail_urban rail rail_electric rail_fast ship" speed="3.65" length="3.23" shape="2230.50,380.66 2229.97,379.94 2230.24,379.08 2231.29,378.10"/>
    </edge>
    <edge id=":105_3" function="internal">
        <lane id=":105_3_0" index="0" disallow="tram rail_urban rail rail_electric rail_fast ship" speed="6.70" length="9.29" shape="2224.61,373.29 2225.49,375.73 2226.90,377.34 2228.83,378.13 2231.29,378.10"/>
    </edge>
    <edge id=":105_4" function="internal">
        <lane id=":105_4_0" index="0" disallow="tram rail_urban rail rail_electric rail_fast ship" speed="7.91" length="14.38" shape="2224.61,373.29 2224.89,377.25 2223.81,380.28 2221.38,382.40 2217.60,383.59"/>
    </edge>
    <edge id=":105_5" function="internal">
        <lane id=":105_5_0" index="0" disallow="tram rail_urban rail rail_electric rail_fast ship" speed="3.65" length="4.67" shape="2224.61,373.29 2224.08,374.63 2223.39,375.19 2222.52,374.97 2221.48,373.96"/>
    </edge>
    <edge id=":105_6" function="internal">
        <lane id=":105_6_0" index="0" disallow="tram rail_urban rail rail_electric rail_fast ship" speed="6.40" length="9.04" shape="2217.08,380.44 2219.45,379.69 2220.98,378.36 2221.66,376.45 2221.48,373.96"/>
    </edge>
    <edge id=":105_7" function="internal">
        <lane id=":105_7_0" index="0" disallow="tram rail_urban rail rail_electric rail_fast ship" speed="13.89" length="14.41" shape="2217.08,380.44 2231.29,378.10"/>
    </edge>
    <edge id=":105_8" function="internal">
        <lane id=":105_8_0" index="0" disallow="tram rail_urban rail rail_electric rail_fast ship" speed="3.65" length="1.44" shape="2217.08,380.44 2218.39,381.03"/>
    </edge>
    <edge id=":105_11" function="internal">
        <lane id=":105_11_0" index="0" disallow="tram rail_urban rail rail_electric rail_fast ship" speed="3.65" length="3.23" shape="2218.39,381.03 2218.91,381.76 2218.65,382.61 2217.60,383.59"/>
    </edge>
    <edge id=":107_0" function="internal">
        <lane id=":107_0_0" index="0" disallow="tram rail_urban rail rail_electric rail_fast ship" speed="13.89" length="0.29" shape="948.66,199.83 948.37,199.89"/>
    </edge>
    <edge id=":107_1" function="internal">
        <lane id=":107_1_0" index="0" disallow="tram rail_urban rail rail_electric rail_fast ship" speed="3.65" length="2.34" shape="948.66,199.83 947.33,199.27 946.79,198.57"/>
    </edge>
    <edge id=":107_4" function="internal">
        <lane id=":107_4_0" index="0" disallow="tram rail_urban rail rail_electric rail_fast ship" speed="3.65" length="2.34" shape="946.79,198.57 947.03,197.70 948.05,196.69"/>
    </edge>
    <edge id=":107_2" function="internal">
        <lane id=":107_2_0" index="0" disallow="tram rail_urban rail rail_electric rail_fast ship" speed="13.89" length="0.31" shape="947.75,196.75 948.05,196.69"/>
    </edge>
    <edge id=":107_3" function="internal">
        <lane id=":107_3_0" index="0" disallow="tram rail_urban rail rail_electric rail_fast ship" speed="3.65" length="2.34" shape="947.75,196.75 949.08,197.30 949.63,198.01"/>
    </edge>
    <edge id=":107_5" function="internal">
        <lane id=":107_5_0" index="0" disallow="tram rail_urban rail rail_electric rail_fast ship" speed="3.65" length="2.34" shape="949.63,198.01 949.40,198.87 948.37,199.89"/>
    </edge>
    <edge id=":108_0" function="internal">
        <lane id=":108_0_0" index="0" disallow="tram rail_urban rail rail_electric rail_fast ship" speed="6.38" length="9.04" shape="2320.01,233.94 2319.29,231.55 2317.98,230.01 2316.08,229.33 2313.59,229.49"/>
    </edge>
    <edge id=":108_1" function="internal">
        <lane id=":108_1_0" index="0" disallow="tram rail_urban rail rail_electric rail_fast ship" speed="13.89" length="14.39" shape="2320.01,233.94 2317.92,219.70"/>
    </edge>
    <edge id=":108_2" function="internal">
        <lane id=":108_2_0" index="0" disallow="tram rail_urban rail rail_electric rail_fast ship" speed="3.65" length="1.44" shape="2320.01,233.94 2320.62,232.64"/>
    </edge>
    <edge id=":108_12" function="internal">
        <lane id=":108_12_0" index="0" disallow="tram rail_urban rail rail_electric rail_fast ship" speed="3.65" length="3.23" shape="2320.62,232.64 2321.35,232.12 2322.21,232.39 2323.18,233.46"/>
    </edge>
    <edge id=":108_3" function="internal">
        <lane id=":108_3_0" index="0" disallow="tram rail_urban rail rail_electric rail_fast ship" speed="7.08" length="10.80" shape="2327.64,225.02 2325.26,225.89 2323.72,227.59 2323.03,230.11 2323.18,233.46"/>
    </edge>
    <edge id=":108_4" function="internal">
        <lane id=":108_4_0" index="0" disallow="tram rail_urban rail rail_electric rail_fast ship" speed="13.89" length="14.77" shape="2327.64,225.02 2324.05,225.91 2320.60,227.17 2317.15,228.47 2313.59,229.49"/>
    </edge>
    <edge id=":108_5" function="internal">
        <lane id=":108_5_0" index="0" disallow="tram rail_urban rail rail_electric rail_fast ship" speed="7.53" length="12.63" shape="2327.64,225.02 2323.75,225.23 2320.83,224.41 2318.88,222.57 2317.92,219.70"/>
    </edge>
    <edge id=":108_6" function="internal">
        <lane id=":108_6_0" index="0" disallow="tram rail_urban rail rail_electric rail_fast ship" speed="13.89" length="14.35" shape="2321.09,219.26 2323.18,233.46"/>
    </edge>
    <edge id=":108_7" function="internal">
        <lane id=":108_7_0" index="0" disallow="tram rail_urban rail rail_electric rail_fast ship" speed="8.23" length="3.92" shape="2321.09,219.26 2321.06,223.04 2321.01,223.16"/>
    </edge>
    <edge id=":108_8" function="internal">
        <lane id=":108_8_0" index="0" disallow="tram rail_urban rail rail_electric rail_fast ship" speed="3.65" length="1.44" shape="2321.09,219.26 2320.46,220.56"/>
    </edge>
    <edge id=":108_13" function="internal">
        <lane id=":108_13_0" index="0" disallow="tram rail_urban rail rail_electric rail_fast ship" speed="8.23" length="10.34" shape="2321.01,223.16 2319.80,226.01 2317.31,228.16 2313.59,229.49"/>
    </edge>
    <edge id=":108_14" function="internal">
        <lane id=":108_14_0" index="0" disallow="tram rail_urban rail rail_electric rail_fast ship" speed="3.65" length="3.23" shape="2320.46,220.56 2319.73,221.07 2318.88,220.78 2317.92,219.70"/>
    </edge>
    <edge id=":108_9" function="internal">
        <lane id=":108_9_0" index="0" disallow="tram rail_urban rail rail_electric rail_fast ship" speed="6.77" length="9.34" shape="2312.94,226.36 2315.40,225.49 2317.06,224.09 2317.89,222.16 2317.92,219.70"/>
    </edge>
    <edge id=":108_10" function="internal">
        <lane id=":108_10_0" index="0" disallow="tram rail_urban rail rail_electric rail_fast ship" speed="7.90" length="14.40" shape="2312.94,226.36 2316.90,226.10 2319.93,227.19 2322.02,229.65 2323.18,233.46"/>
    </edge>
    <edge id=":108_11" function="internal">
        <lane id=":108_11_0" index="0" disallow="tram rail_urban rail rail_electric rail_fast ship" speed="3.65" length="4.67" shape="2312.94,226.36 2314.27,226.90 2314.83,227.60 2314.60,228.47 2313.59,229.49"/>
    </edge>
    <edge id=":109_0" function="internal">
        <lane id=":109_0_0" index="0" disallow="tram rail_urban rail rail_electric rail_fast ship" speed="6.08" length="7.78" shape="1135.06,456.23 1134.98,454.10 1135.59,452.45 1136.92,451.30 1138.95,450.63"/>
    </edge>
    <edge id=":109_1" function="internal">
        <lane id=":109_1_0" index="0" disallow="tram rail_urban rail rail_electric rail_fast ship" speed="3.65" length="1.44" shape="1135.06,456.23 1135.63,454.91"/>
    </edge>
    <edge id=":109_4" function="internal">
        <lane id=":109_4_0" index="0" disallow="tram rail_urban rail rail_electric rail_fast ship" speed="3.65" length="3.23" shape="1135.63,454.91 1136.35,454.37 1137.20,454.61 1138.21,455.65"/>
    </edge>
    <edge id=":109_2" function="internal">
        <lane id=":109_2_0" index="0" disallow="tram rail_urban rail rail_electric rail_fast ship" speed="3.90" length="2.59" shape="1139.50,453.78 1138.83,454.01 1138.39,454.39 1138.18,454.94 1138.21,455.65"/>
    </edge>
    <edge id=":109_3" function="internal">
        <lane id=":109_3_0" index="0" disallow="tram rail_urban rail rail_electric rail_fast ship" speed="3.65" length="1.30" shape="1139.50,453.78 1138.31,453.26"/>
    </edge>
    <edge id=":109_5" function="internal">
        <lane id=":109_5_0" index="0" disallow="tram rail_urban rail rail_electric rail_fast ship" speed="3.65" length="3.37" shape="1138.31,453.26 1138.18,453.20 1137.65,452.49 1137.90,451.63 1138.95,450.63"/>
    </edge>
    <edge id=":110_0" function="internal">
        <lane id=":110_0_0" index="0" disallow="tram rail_urban rail rail_electric rail_fast ship" speed="13.89" length="0.10" shape="1704.03,238.50 1704.03,238.50"/>
    </edge>
    <edge id=":110_1" function="internal">
        <lane id=":110_1_0" index="0" disallow="tram rail_urban rail rail_electric rail_fast ship" speed="3.65" length="2.34" shape="1704.03,238.50 1702.72,237.90 1702.20,237.17"/>
    </edge>
    <edge id=":110_4" function="internal">
        <lane id=":110_4_0" index="0" disallow="tram rail_urban rail rail_electric rail_fast ship" speed="3.65" length="2.34" shape="1702.20,237.17 1702.47,236.32 1703.53,235.34"/>
    </edge>
    <edge id=":110_2" function="internal">
        <lane id=":110_2_0" index="0" disallow="tram rail_urban rail rail_electric rail_fast ship" speed="13.89" length="0.10" shape="1703.53,235.34 1703.53,235.34"/>
    </edge>
    <edge id=":110_3" function="internal">
        <lane id=":110_3_0" index="0" disallow="tram rail_urban rail rail_electric rail_fast ship" speed="3.65" length="2.34" shape="1703.53,235.34 1704.84,235.94 1705.36,236.67"/>
    </edge>
    <edge id=":110_5" function="internal">
        <lane id=":110_5_0" index="0" disallow="tram rail_urban rail rail_electric rail_fast ship" speed="3.65" length="2.34" shape="1705.36,236.67 1705.09,237.52 1704.03,238.50"/>
    </edge>
    <edge id=":112_0" function="internal">
        <lane id=":112_0_0" index="0" disallow="tram rail_urban rail rail_electric rail_fast ship" speed="6.60" length="9.13" shape="1406.99,310.43 1406.20,308.04 1404.86,306.45 1402.95,305.66 1400.49,305.68"/>
    </edge>
    <edge id=":112_1" function="internal">
        <lane id=":112_1_0" index="0" disallow="tram rail_urban rail rail_electric rail_fast ship" speed="7.98" length="14.25" shape="1406.99,310.43 1406.85,306.53 1408.00,303.53 1410.44,301.44 1414.17,300.26"/>
    </edge>
    <edge id=":112_2" function="internal">
        <lane id=":112_2_0" index="0" disallow="tram rail_urban rail rail_electric rail_fast ship" speed="3.65" length="4.67" shape="1406.99,310.43 1407.56,309.11 1408.28,308.58 1409.14,308.83 1410.14,309.87"/>
    </edge>
    <edge id=":112_3" function="internal">
        <lane id=":112_3_0" index="0" disallow="tram rail_urban rail rail_electric rail_fast ship" speed="6.48" length="9.03" shape="1414.69,303.42 1412.32,304.16 1410.78,305.49 1410.05,307.39 1410.14,309.87"/>
    </edge>
    <edge id=":112_4" function="internal">
        <lane id=":112_4_0" index="0" disallow="tram rail_urban rail rail_electric rail_fast ship" speed="13.89" length="14.38" shape="1414.69,303.42 1400.49,305.68"/>
    </edge>
    <edge id=":112_5" function="internal">