<?xml version="1.0" encoding="UTF-8"?>

<!-- generated on 2022-10-03 11:58:02 by Eclipse SUMO netconvert Version 1.12.0
<configuration xmlns:xsi="http://www.w3.org/2001/XMLSchema-instance" xsi:noNamespaceSchemaLocation="http://sumo.dlr.de/xsd/netconvertConfiguration.xsd">

    <input>
        <sumo-net-file value="/home/svadlmat/UTC/utc/data/maps/sumo/Sydney.net.xml"/>
    </input>

    <output>
        <output-file value="/home/svadlmat/UTC/utc/data/maps/sumo/11_27_53_Sydney_similarity_average_similarity_sg.net.xml"/>
    </output>

    <processing>
        <geometry.min-radius.fix.railways value="false"/>
        <geometry.max-grade.fix value="false"/>
        <offset.disable-normalization value="true"/>
        <lefthand value="false"/>
    </processing>

    <edge_removal>
        <keep-edges.explicit value="214,960,417,233,404,51,563,643,145,1041,479,634,837,985,399,280,355,792,670,664,1012,769,978,124,504,977,65,628,699,398,457,1017,853,425,658,433,796,357,587,831,494,1031,1020,144,151,331,82,488,16,645,155,657,62,312,788,371,447,794,445,641,484,889,957,215,864,53,512,744,709,375,549,924,741,763,216,208,217,366,869,915,290,266,285,249,681,706,112,415,619,248,656,38,127,342,969,649,891,426,333,1058,482,710,511,627,633,1002,774,997,750,153,46,760,1021,795,988,958,502,659,859,55,1003,114,10,916,147,1023,146,875,1010,535,107,712,968,1027,311,335,513,635,942,403,1026,156,742,136,886,356,745,133,430,475,933,935,1022,11,9,92,910,150,671,17,972,984,154,115,135,286,480,1032,787,975,954,1018,278,666,446,313,945,923,314,989,865,54,990,752,323,751,485,708,766,424,919,571,608,148,423,1019,538,921,111,863,976,15,655,967,210,126,1024,3,47,872,143,134,618,267,289,341,157,937,284,932,934,12,18,7,961,669,644,964,400,743,52,487,283,483,711,680,125,832,334,944,791,609,642,920,336,1030,585,427,679,759,922,946,354,746,367,382,232,407,636,56,943,428,14,707,317,898,416,230,758,890"/>
    </edge_removal>

    <junctions>
        <no-turnarounds value="true"/>
        <junctions.corner-detail value="5"/>
        <junctions.limit-turn-speed value="5.5"/>
        <rectangular-lane-cut value="false"/>
    </junctions>

    <pedestrian>
        <walkingareas value="false"/>
    </pedestrian>

    <report>
        <aggregate-warnings value="5"/>
    </report>

</configuration>
-->

<net version="1.9" junctionCornerDetail="5" limitTurnSpeed="5.50" xmlns:xsi="http://www.w3.org/2001/XMLSchema-instance" xsi:noNamespaceSchemaLocation="http://sumo.dlr.de/xsd/net_file.xsd">

    <location netOffset="-336586.08,3754670.31" convBoundary="0.00,12.34,2341.18,2154.71" origBoundary="151.232525,-33.920080,151.266296,-33.899237" projParameter="+proj=utm +zone=56 +ellps=WGS84 +datum=WGS84 +units=m +no_defs"/>

    <type id="highway.bridleway" priority="1" numLanes="1" speed="2.78" allow="pedestrian" oneway="1" width="2.00"/>
    <type id="highway.bus_guideway" priority="1" numLanes="1" speed="27.78" allow="bus" oneway="1"/>
    <type id="highway.cycleway" priority="1" numLanes="1" speed="8.33" allow="bicycle" oneway="0" width="1.00"/>
    <type id="highway.footway" priority="1" numLanes="1" speed="2.78" allow="pedestrian" oneway="1" width="2.00"/>
    <type id="highway.ford" priority="1" numLanes="1" speed="2.78" allow="army" oneway="0"/>
    <type id="highway.living_street" priority="2" numLanes="1" speed="2.78" disallow="tram rail_urban rail rail_electric rail_fast ship" oneway="0"/>
    <type id="highway.motorway" priority="14" numLanes="2" speed="39.44" allow="private emergency authority army vip passenger hov taxi bus coach delivery truck trailer motorcycle evehicle custom1 custom2" oneway="1"/>
    <type id="highway.motorway_link" priority="9" numLanes="1" speed="22.22" allow="private emergency authority army vip passenger hov taxi bus coach delivery truck trailer motorcycle evehicle custom1 custom2" oneway="1"/>
    <type id="highway.path" priority="1" numLanes="1" speed="2.78" allow="pedestrian bicycle" oneway="0" width="2.00"/>
    <type id="highway.pedestrian" priority="1" numLanes="1" speed="2.78" allow="pedestrian" oneway="1" width="2.00"/>
    <type id="highway.primary" priority="12" numLanes="2" speed="27.78" disallow="tram rail_urban rail rail_electric rail_fast ship" oneway="0"/>
    <type id="highway.primary_link" priority="7" numLanes="1" speed="22.22" disallow="tram rail_urban rail rail_electric rail_fast ship" oneway="0"/>
    <type id="highway.raceway" priority="15" numLanes="2" speed="83.33" allow="vip" oneway="0"/>
    <type id="highway.residential" priority="3" numLanes="1" speed="13.89" disallow="tram rail_urban rail rail_electric rail_fast ship" oneway="0"/>
    <type id="highway.secondary" priority="11" numLanes="1" speed="27.78" disallow="tram rail_urban rail rail_electric rail_fast ship" oneway="0"/>
    <type id="highway.secondary_link" priority="6" numLanes="1" speed="22.22" disallow="tram rail_urban rail rail_electric rail_fast ship" oneway="0"/>
    <type id="highway.service" priority="1" numLanes="1" speed="5.56" allow="pedestrian delivery bicycle" oneway="0"/>
    <type id="highway.stairs" priority="1" numLanes="1" speed="1.39" allow="pedestrian" oneway="1" width="2.00"/>
    <type id="highway.step" priority="1" numLanes="1" speed="1.39" allow="pedestrian" oneway="1" width="2.00"/>
    <type id="highway.steps" priority="1" numLanes="1" speed="1.39" allow="pedestrian" oneway="1" width="2.00"/>
    <type id="highway.tertiary" priority="10" numLanes="1" speed="22.22" disallow="tram rail_urban rail rail_electric rail_fast ship" oneway="0"/>
    <type id="highway.tertiary_link" priority="5" numLanes="1" speed="22.22" disallow="tram rail_urban rail rail_electric rail_fast ship" oneway="0"/>
    <type id="highway.track" priority="1" numLanes="1" speed="5.56" allow="pedestrian motorcycle moped bicycle" oneway="0"/>
    <type id="highway.trunk" priority="13" numLanes="2" speed="27.78" disallow="pedestrian bicycle tram rail_urban rail rail_electric rail_fast ship" oneway="0"/>
    <type id="highway.trunk_link" priority="8" numLanes="1" speed="22.22" disallow="pedestrian bicycle tram rail_urban rail rail_electric rail_fast ship" oneway="0"/>
    <type id="highway.unclassified" priority="4" numLanes="1" speed="13.89" disallow="tram rail_urban rail rail_electric rail_fast ship" oneway="0"/>
    <type id="highway.unsurfaced" priority="1" numLanes="1" speed="8.33" disallow="tram rail_urban rail rail_electric rail_fast ship" oneway="0"/>
    <type id="railway.highspeed" priority="21" numLanes="1" speed="69.44" allow="rail_fast" oneway="1"/>
    <type id="railway.light_rail" priority="19" numLanes="1" speed="27.78" allow="rail_urban" oneway="1"/>
    <type id="railway.preserved" priority="16" numLanes="1" speed="27.78" allow="rail" oneway="1"/>
    <type id="railway.rail" priority="20" numLanes="1" speed="44.44" allow="rail" oneway="1"/>
    <type id="railway.subway" priority="18" numLanes="1" speed="27.78" allow="rail_urban" oneway="1"/>
    <type id="railway.tram" priority="17" numLanes="1" speed="13.89" allow="tram" oneway="1"/>

    <edge id=":1_0" function="internal">
        <lane id=":1_0_0" index="0" disallow="tram rail_urban rail rail_electric rail_fast ship" speed="3.93" length="3.39" shape="1576.08,1031.10 1575.09,1031.15 1574.45,1030.85 1574.16,1030.20 1574.22,1029.21"/>
    </edge>
    <edge id=":101_0" function="internal">
        <lane id=":101_0_0" index="0" disallow="tram rail_urban rail rail_electric rail_fast ship" speed="6.50" length="9.03" shape="1696.88,591.33 1699.24,590.60 1700.80,589.29 1701.56,587.40 1701.52,584.93"/>
    </edge>
    <edge id=":101_1" function="internal">
        <lane id=":101_1_0" index="0" disallow="tram rail_urban rail rail_electric rail_fast ship" speed="22.22" length="11.21" shape="1696.88,591.33 1707.94,589.57"/>
    </edge>
    <edge id=":102_0" function="internal">
        <lane id=":102_0_0" index="0" disallow="tram rail_urban rail rail_electric rail_fast ship" speed="6.07" length="7.88" shape="1142.76,480.26 1142.84,482.43 1142.21,484.09 1140.86,485.23 1138.79,485.87"/>
    </edge>
    <edge id=":102_1" function="internal">
        <lane id=":102_1_0" index="0" disallow="tram rail_urban rail rail_electric rail_fast ship" speed="3.65" length="1.44" shape="1142.76,480.26 1142.19,481.59"/>
    </edge>
    <edge id=":102_4" function="internal">
        <lane id=":102_4_0" index="0" disallow="tram rail_urban rail rail_electric rail_fast ship" speed="3.65" length="3.23" shape="1142.19,481.59 1141.47,482.13 1140.61,481.88 1139.61,480.84"/>
    </edge>
    <edge id=":102_2" function="internal">
        <lane id=":102_2_0" index="0" disallow="tram rail_urban rail rail_electric rail_fast ship" speed="3.90" length="2.63" shape="1138.29,482.71 1138.98,482.50 1139.43,482.12 1139.64,481.57 1139.61,480.84"/>
    </edge>
    <edge id=":102_3" function="internal">
        <lane id=":102_3_0" index="0" disallow="tram rail_urban rail rail_electric rail_fast ship" speed="3.65" length="1.30" shape="1138.29,482.71 1139.47,483.26"/>
    </edge>
    <edge id=":102_5" function="internal">
        <lane id=":102_5_0" index="0" disallow="tram rail_urban rail rail_electric rail_fast ship" speed="3.65" length="3.37" shape="1139.47,483.26 1139.60,483.32 1140.12,484.04 1139.85,484.90 1138.79,485.87"/>
    </edge>
    <edge id=":103_0" function="internal">
        <lane id=":103_0_0" index="0" disallow="tram rail_urban rail rail_electric rail_fast ship" speed="6.45" length="9.03" shape="2200.48,253.84 2199.80,251.45 2198.52,249.87 2196.64,249.10 2194.15,249.15"/>
    </edge>
    <edge id=":103_1" function="internal">
        <lane id=":103_1_0" index="0" disallow="tram rail_urban rail rail_electric rail_fast ship" speed="7.41" length="11.75" shape="2200.48,253.84 2200.30,249.95 2200.94,247.04 2202.41,245.12 2204.69,244.19"/>
    </edge>
    <edge id=":103_2" function="internal">
        <lane id=":103_2_0" index="0" disallow="tram rail_urban rail rail_electric rail_fast ship" speed="13.89" length="11.20" shape="2205.21,247.35 2194.15,249.15"/>
    </edge>
    <edge id=":103_3" function="internal">
        <lane id=":103_3_0" index="0" disallow="tram rail_urban rail rail_electric rail_fast ship" speed="3.65" length="1.44" shape="2205.21,247.35 2203.89,246.75"/>
    </edge>
    <edge id=":103_6" function="internal">
        <lane id=":103_6_0" index="0" disallow="tram rail_urban rail rail_electric rail_fast ship" speed="3.65" length="3.23" shape="2203.89,246.75 2203.37,246.03 2203.64,245.17 2204.69,244.19"/>
    </edge>
    <edge id=":103_4" function="internal">
        <lane id=":103_4_0" index="0" disallow="tram rail_urban rail rail_electric rail_fast ship" speed="13.89" length="11.20" shape="2193.64,245.99 2204.69,244.19"/>
    </edge>
    <edge id=":103_5" function="internal">
        <lane id=":103_5_0" index="0" disallow="tram rail_urban rail rail_electric rail_fast ship" speed="3.65" length="1.44" shape="2193.64,245.99 2194.95,246.59"/>
    </edge>
    <edge id=":103_7" function="internal">
        <lane id=":103_7_0" index="0" disallow="tram rail_urban rail rail_electric rail_fast ship" speed="3.65" length="3.23" shape="2194.95,246.59 2195.48,247.31 2195.21,248.17 2194.15,249.15"/>
    </edge>
    <edge id=":104_0" function="internal">
        <lane id=":104_0_0" index="0" disallow="tram rail_urban rail rail_electric rail_fast ship" speed="6.53" length="9.06" shape="1534.39,391.73 1533.65,389.37 1532.33,387.81 1530.43,387.05 1527.94,387.09"/>
    </edge>
    <edge id=":104_1" function="internal">
        <lane id=":104_1_0" index="0" disallow="tram rail_urban rail rail_electric rail_fast ship" speed="13.89" length="14.40" shape="1534.39,391.73 1532.09,377.52"/>
    </edge>
    <edge id=":104_2" function="internal">
        <lane id=":104_2_0" index="0" disallow="tram rail_urban rail rail_electric rail_fast ship" speed="7.99" length="4.06" shape="1535.25,377.01 1535.32,380.91 1535.26,381.06"/>
    </edge>
    <edge id=":104_3" function="internal">
        <lane id=":104_3_0" index="0" disallow="tram rail_urban rail rail_electric rail_fast ship" speed="3.65" length="1.44" shape="1535.25,377.01 1534.65,378.32"/>
    </edge>
    <edge id=":104_6" function="internal">
        <lane id=":104_6_0" index="0" disallow="tram rail_urban rail rail_electric rail_fast ship" speed="7.99" length="10.15" shape="1535.26,381.06 1534.13,383.89 1531.66,385.95 1527.94,387.09"/>
    </edge>
    <edge id=":104_7" function="internal">
        <lane id=":104_7_0" index="0" disallow="tram rail_urban rail rail_electric rail_fast ship" speed="3.65" length="3.23" shape="1534.65,378.32 1533.93,378.85 1533.07,378.58 1532.09,377.52"/>
    </edge>
    <edge id=":104_4" function="internal">
        <lane id=":104_4_0" index="0" disallow="tram rail_urban rail rail_electric rail_fast ship" speed="6.50" length="9.03" shape="1527.44,383.92 1529.81,383.20 1531.38,381.89 1532.14,380.00 1532.09,377.52"/>
    </edge>
    <edge id=":104_5" function="internal">
        <lane id=":104_5_0" index="0" disallow="tram rail_urban rail rail_electric rail_fast ship" speed="3.65" length="4.67" shape="1527.44,383.92 1528.75,384.53 1529.27,385.26 1529.00,386.11 1527.94,387.09"/>
    </edge>
    <edge id=":105_0" function="internal">
        <lane id=":105_0_0" index="0" disallow="tram rail_urban rail rail_electric rail_fast ship" speed="13.89" length="0.10" shape="2224.86,382.40 2224.86,382.40"/>
    </edge>
    <edge id=":107_0" function="internal">
        <lane id=":107_0_0" index="0" disallow="tram rail_urban rail rail_electric rail_fast ship" speed="13.89" length="0.30" shape="948.66,199.83 948.37,199.89"/>
    </edge>
    <edge id=":108_0" function="internal">
        <lane id=":108_0_0" index="0" disallow="tram rail_urban rail rail_electric rail_fast ship" speed="13.89" length="13.67" shape="2321.12,219.51 2323.11,233.04"/>
    </edge>
    <edge id=":108_1" function="internal">
        <lane id=":108_1_0" index="0" disallow="tram rail_urban rail rail_electric rail_fast ship" speed="8.03" length="13.53" shape="2321.12,219.51 2321.12,223.18 2319.97,226.04 2317.66,228.10 2314.21,229.36"/>
    </edge>
    <edge id=":108_2" function="internal">
        <lane id=":108_2_0" index="0" disallow="tram rail_urban rail rail_electric rail_fast ship" speed="3.65" length="4.67" shape="2321.12,219.51 2320.50,220.81 2319.76,221.32 2318.91,221.03 2317.95,219.96"/>
    </edge>
    <edge id=":108_3" function="internal">
        <lane id=":108_3_0" index="0" disallow="tram rail_urban rail rail_electric rail_fast ship" speed="6.53" length="8.61" shape="2313.55,226.23 2315.75,225.43 2317.22,224.12 2317.95,222.29 2317.95,219.96"/>
    </edge>
    <edge id=":108_4" function="internal">
        <lane id=":108_4_0" index="0" disallow="tram rail_urban rail rail_electric rail_fast ship" speed="7.68" length="13.57" shape="2313.55,226.23 2317.24,226.00 2320.07,227.05 2322.02,229.40 2323.11,233.04"/>
    </edge>
    <edge id=":108_5" function="internal">
        <lane id=":108_5_0" index="0" disallow="tram rail_urban rail rail_electric rail_fast ship" speed="3.65" length="4.67" shape="2313.55,226.23 2314.89,226.77 2315.45,227.47 2315.22,228.33 2314.21,229.36"/>
    </edge>
    <edge id=":109_0" function="internal">
        <lane id=":109_0_0" index="0" disallow="tram rail_urban rail rail_electric rail_fast ship" speed="6.08" length="7.78" shape="1135.06,456.23 1134.98,454.10 1135.59,452.45 1136.92,451.30 1138.95,450.63"/>
    </edge>
    <edge id=":109_1" function="internal">
        <lane id=":109_1_0" index="0" disallow="tram rail_urban rail rail_electric rail_fast ship" speed="3.65" length="1.44" shape="1135.06,456.23 1135.63,454.91"/>
    </edge>
    <edge id=":109_4" function="internal">
        <lane id=":109_4_0" index="0" disallow="tram rail_urban rail rail_electric rail_fast ship" speed="3.65" length="3.23" shape="1135.63,454.91 1136.35,454.37 1137.20,454.61 1138.21,455.65"/>
    </edge>
    <edge id=":109_2" function="internal">
        <lane id=":109_2_0" index="0" disallow="tram rail_urban rail rail_electric rail_fast ship" speed="3.90" length="2.59" shape="1139.50,453.78 1138.83,454.01 1138.39,454.39 1138.18,454.94 1138.21,455.65"/>
    </edge>
    <edge id=":109_3" function="internal">
        <lane id=":109_3_0" index="0" disallow="tram rail_urban rail rail_electric rail_fast ship" speed="3.65" length="1.30" shape="1139.50,453.78 1138.31,453.26"/>
    </edge>
    <edge id=":109_5" function="internal">
        <lane id=":109_5_0" index="0" disallow="tram rail_urban rail rail_electric rail_fast ship" speed="3.65" length="3.37" shape="1138.31,453.26 1138.18,453.20 1137.65,452.49 1137.90,451.63 1138.95,450.63"/>
    </edge>
    <edge id=":110_0" function="internal">
        <lane id=":110_0_0" index="0" disallow="tram rail_urban rail rail_electric rail_fast ship" speed="13.89" length="0.10" shape="1704.03,238.50 1704.03,238.50"/>
    </edge>
    <edge id=":112_0" function="internal">
        <lane id=":112_0_0" index="0" disallow="tram rail_urban rail rail_electric rail_fast ship" speed="6.53" length="8.93" shape="1406.96,310.29 1406.20,307.96 1404.88,306.41 1403.01,305.65 1400.59,305.67"/>
    </edge>
    <edge id=":112_1" function="internal">
        <lane id=":112_1_0" index="0" disallow="tram rail_urban rail rail_electric rail_fast ship" speed="7.25" length="11.59" shape="1406.96,310.29 1406.63,306.48 1407.18,303.63 1408.60,301.73 1410.91,300.80"/>
    </edge>
    <edge id=":112_2" function="internal">
        <lane id=":112_2_0" index="0" disallow="tram rail_urban rail rail_electric rail_fast ship" speed="13.89" length="10.98" shape="1411.43,303.95 1400.59,305.67"/>
    </edge>
    <edge id=":112_3" function="internal">
        <lane id=":112_3_0" index="0" disallow="tram rail_urban rail rail_electric rail_fast ship" speed="3.65" length="1.23" shape="1411.43,303.95 1410.31,303.45"/>
    </edge>
    <edge id=":112_4" function="internal">
        <lane id=":112_4_0" index="0" disallow="tram rail_urban rail rail_electric rail_fast ship" speed="3.65" length="3.44" shape="1410.31,303.45 1410.12,303.36 1409.59,302.64 1409.86,301.78 1410.91,300.80"/>
    </edge>
    <edge id=":113_0" function="internal">
        <lane id=":113_0_0" index="0" disallow="tram rail_urban rail rail_electric rail_fast ship" speed="27.78" length="0.30" shape="1489.79,115.20 1489.75,114.90"/>
    </edge>
    <edge id=":114_0" function="internal">
        <lane id=":114_0_0" index="0" disallow="tram rail_urban rail rail_electric rail_fast ship" speed="4.00" length="1.74" shape="2078.36,177.96 2078.16,178.37 2077.89,178.68 2077.53,178.90 2077.10,179.02"/>
    </edge>
    <edge id=":116_0" function="internal">
        <lane id=":116_0_0" index="0" disallow="tram rail_urban rail rail_electric rail_fast ship" speed="13.89" length="0.29" shape="447.16,625.26 447.22,625.54"/>
    </edge>
    <edge id=":117_0" function="internal">
        <lane id=":117_0_0" index="0" disallow="tram rail_urban rail rail_electric rail_fast ship" speed="27.78" length="0.28" shape="1469.94,635.07 1470.21,635.00"/>
    </edge>
    <edge id=":118_0" function="internal">
        <lane id=":118_0_0" index="0" disallow="tram rail_urban rail rail_electric rail_fast ship" speed="3.97" length="1.91" shape="2087.80,187.57 2087.78,187.07 2087.90,186.63 2088.15,186.26 2088.55,185.95"/>
    </edge>
    <edge id=":119_0" function="internal">
        <lane id=":119_0_0" index="0" disallow="tram rail_urban rail rail_electric rail_fast ship" speed="13.89" length="0.26" shape="1813.76,222.84 1813.50,222.88"/>
    </edge>
    <edge id=":122_0" function="internal">
        <lane id=":122_0_0" index="0" disallow="tram rail_urban rail rail_electric rail_fast ship" speed="3.91" length="2.52" shape="2206.83,312.69 2207.48,312.48 2207.92,312.11 2208.14,311.59 2208.14,310.90"/>
    </edge>
    <edge id=":124_0" function="internal">
        <lane id=":124_0_0" index="0" disallow="tram rail_urban rail rail_electric rail_fast ship" speed="27.78" length="0.30" shape="1387.74,673.85 1387.99,673.69"/>
    </edge>
    <edge id=":127_0" function="internal">
        <lane id=":127_0_0" index="0" disallow="tram rail_urban rail rail_electric rail_fast ship" speed="20.84" length="11.22" shape="1529.55,361.74 1527.80,350.65"/>
    </edge>
    <edge id=":127_1" function="internal">
        <lane id=":127_1_0" index="0" disallow="tram rail_urban rail rail_electric rail_fast ship" speed="3.65" length="4.67" shape="1529.55,361.74 1530.15,360.43 1530.87,359.90 1531.73,360.17 1532.71,361.23"/>
    </edge>
    <edge id=":127_2" function="internal">
        <lane id=":127_2_0" index="0" disallow="tram rail_urban rail rail_electric rail_fast ship" speed="6.50" length="9.04" shape="1537.35,354.82 1534.98,355.54 1533.42,356.85 1532.66,358.75 1532.71,361.23"/>
    </edge>
    <edge id=":127_3" function="internal">
        <lane id=":127_3_0" index="0" disallow="tram rail_urban rail rail_electric rail_fast ship" speed="7.31" length="11.71" shape="1537.35,354.82 1533.48,355.07 1530.60,354.45 1528.71,352.98 1527.80,350.65"/>
    </edge>
    <edge id=":129_0" function="internal">
        <lane id=":129_0_0" index="0" disallow="tram rail_urban rail rail_electric rail_fast ship" speed="22.22" length="0.10" shape="1916.35,1532.26 1916.41,1532.31"/>
    </edge>
    <edge id=":129_1" function="internal">
        <lane id=":129_1_0" index="0" disallow="tram rail_urban rail rail_electric rail_fast ship" speed="3.65" length="2.34" shape="1916.35,1532.26 1915.98,1530.87 1916.21,1530.00"/>
    </edge>
    <edge id=":129_4" function="internal">
        <lane id=":129_4_0" index="0" disallow="tram rail_urban rail rail_electric rail_fast ship" speed="3.65" length="2.34" shape="1916.21,1530.00 1917.04,1529.67 1918.47,1529.86"/>
    </edge>
    <edge id=":129_2" function="internal">
        <lane id=":129_2_0" index="0" disallow="tram rail_urban rail rail_electric rail_fast ship" speed="22.22" length="0.10" shape="1918.41,1529.81 1918.47,1529.86"/>
    </edge>
    <edge id=":129_3" function="internal">
        <lane id=":129_3_0" index="0" disallow="tram rail_urban rail rail_electric rail_fast ship" speed="3.65" length="2.34" shape="1918.41,1529.81 1918.85,1531.18 1918.66,1532.06"/>
    </edge>
    <edge id=":129_5" function="internal">
        <lane id=":129_5_0" index="0" disallow="tram rail_urban rail rail_electric rail_fast ship" speed="3.65" length="2.34" shape="1918.66,1532.06 1917.85,1532.43 1916.41,1532.31"/>
    </edge>
    <edge id=":130_0" function="internal">
        <lane id=":130_0_0" index="0" disallow="tram rail_urban rail rail_electric rail_fast ship" speed="13.89" length="0.47" shape="1833.65,1082.58 1833.76,1082.49 1833.83,1082.43 1833.89,1082.35 1833.96,1082.24"/>
    </edge>
    <edge id=":132_0" function="internal">
        <lane id=":132_0_0" index="0" disallow="tram rail_urban rail rail_electric rail_fast ship" speed="27.78" length="10.92" shape="1767.23,1120.44 1765.52,1109.65"/>
    </edge>
    <edge id=":132_1" function="internal">
        <lane id=":132_1_0" index="0" disallow="tram rail_urban rail rail_electric rail_fast ship" speed="7.25" length="9.37" shape="1767.23,1120.44 1767.20,1118.05 1767.94,1116.03 1769.43,1114.38 1771.69,1113.09"/>
    </edge>
    <edge id=":132_2" function="internal">
        <lane id=":132_2_0" index="0" disallow="tram rail_urban rail rail_electric rail_fast ship" speed="6.69" length="9.01" shape="1761.11,1116.37 1763.36,1115.47 1764.85,1114.05 1765.57,1112.11 1765.52,1109.65"/>
    </edge>
    <edge id=":132_3" function="internal">
        <lane id=":132_3_0" index="0" disallow="tram rail_urban rail rail_electric rail_fast ship" speed="15.28" length="11.09" shape="1761.11,1116.37 1764.17,1115.63 1766.49,1115.01 1768.78,1114.25 1771.69,1113.09"/>
    </edge>
    <edge id=":133_0" function="internal">
        <lane id=":133_0_0" index="0" disallow="tram rail_urban rail rail_electric rail_fast ship" speed="13.89" length="0.20" shape="1930.10,967.00 1930.16,966.99 1930.20,966.98 1930.24,966.97 1930.29,966.96"/>
    </edge>
    <edge id=":136_0" function="internal">
        <lane id=":136_0_0" index="0" disallow="tram rail_urban rail rail_electric rail_fast ship" speed="22.23" length="0.10" shape="1762.63,1090.74 1762.64,1090.82"/>
    </edge>
    <edge id=":137_0" function="internal">
        <lane id=":137_0_0" index="0" disallow="tram rail_urban rail rail_electric rail_fast ship" speed="13.89" length="0.30" shape="1722.56,1443.62 1722.85,1443.62"/>
    </edge>
    <edge id=":139_0" function="internal">
        <lane id=":139_0_0" index="0" disallow="tram rail_urban rail rail_electric rail_fast ship" speed="22.22" length="0.10" shape="1977.12,1673.13 1977.11,1673.05"/>
    </edge>
    <edge id=":139_1" function="internal">
        <lane id=":139_1_0" index="0" disallow="tram rail_urban rail rail_electric rail_fast ship" speed="3.65" length="2.34" shape="1977.12,1673.13 1977.67,1671.80 1978.38,1671.25"/>
    </edge>
    <edge id=":139_4" function="internal">
        <lane id=":139_4_0" index="0" disallow="tram rail_urban rail rail_electric rail_fast ship" speed="3.65" length="2.34" shape="1978.38,1671.25 1979.24,1671.49 1980.26,1672.51"/>
    </edge>
    <edge id=":139_2" function="internal">
        <lane id=":139_2_0" index="0" disallow="tram rail_urban rail rail_electric rail_fast ship" speed="22.22" length="0.10" shape="1980.27,1672.59 1980.26,1672.51"/>
    </edge>
    <edge id=":139_3" function="internal">
        <lane id=":139_3_0" index="0" disallow="tram rail_urban rail rail_electric rail_fast ship" speed="3.65" length="2.34" shape="1980.27,1672.59 1979.65,1673.89 1978.92,1674.40"/>
    </edge>
    <edge id=":139_5" function="internal">
        <lane id=":139_5_0" index="0" disallow="tram rail_urban rail rail_electric rail_fast ship" speed="3.65" length="2.34" shape="1978.92,1674.40 1978.07,1674.12 1977.11,1673.05"/>
    </edge>
    <edge id=":148_0" function="internal">
        <lane id=":148_0_0" index="0" disallow="tram rail_urban rail rail_electric rail_fast ship" speed="13.89" length="8.76" shape="1764.78,1442.30 1767.22,1441.73 1768.73,1440.59 1770.25,1439.49 1772.69,1439.02"/>
    </edge>
    <edge id=":152_0" function="internal">
        <lane id=":152_0_0" index="0" disallow="tram rail_urban rail rail_electric rail_fast ship" speed="13.89" length="0.10" shape="355.80,1058.56 355.80,1058.56"/>
    </edge>
    <edge id=":153_0" function="internal">
        <lane id=":153_0_0" index="0" disallow="tram rail_urban rail rail_electric rail_fast ship" speed="13.89" length="0.10" shape="512.18,1661.23 512.18,1661.23"/>
    </edge>
    <edge id=":156_0" function="internal">
        <lane id=":156_0_0" index="0" disallow="tram rail_urban rail rail_electric rail_fast ship" speed="3.90" length="2.58" shape="795.26,1697.21 795.97,1697.20 796.51,1697.43 796.88,1697.88 797.08,1698.55"/>
    </edge>
    <edge id=":157_0" function="internal">
        <lane id=":157_0_0" index="0" disallow="tram rail_urban rail rail_electric rail_fast ship" speed="13.89" length="0.10" shape="393.73,1325.58 393.73,1325.58"/>
    </edge>
    <edge id=":158_0" function="internal">
        <lane id=":158_0_0" index="0" disallow="tram rail_urban rail rail_electric rail_fast ship" speed="13.89" length="0.10" shape="200.15,1454.86 200.15,1454.86"/>
    </edge>
    <edge id=":160_0" function="internal">
        <lane id=":160_0_0" index="0" disallow="tram rail_urban rail rail_electric rail_fast ship" speed="6.49" length="9.03" shape="834.69,1159.43 837.06,1158.71 838.63,1157.40 839.39,1155.51 839.34,1153.04"/>
    </edge>
    <edge id=":160_1" function="internal">
        <lane id=":160_1_0" index="0" disallow="tram rail_urban rail rail_electric rail_fast ship" speed="13.89" length="11.25" shape="834.69,1159.43 845.82,1157.79"/>
    </edge>
    <edge id=":161_0" function="internal">
        <lane id=":161_0_0" index="0" disallow="tram rail_urban rail rail_electric rail_fast ship" speed="13.89" length="0.29" shape="725.67,1237.54 725.63,1237.25"/>
    </edge>
    <edge id=":162_0" function="internal">
        <lane id=":162_0_0" index="0" disallow="tram rail_urban rail rail_electric rail_fast ship" speed="6.54" length="9.00" shape="670.38,1715.22 672.74,1714.48 674.31,1713.17 675.09,1711.29 675.08,1708.84"/>
    </edge>
    <edge id=":162_1" function="internal">
        <lane id=":162_1_0" index="0" disallow="tram rail_urban rail rail_electric rail_fast ship" speed="13.89" length="11.21" shape="670.38,1715.22 681.47,1713.62"/>
    </edge>
    <edge id=":163_0" function="internal">
        <lane id=":163_0_0" index="0" disallow="tram rail_urban rail rail_electric rail_fast ship" speed="13.89" length="0.10" shape="582.70,1299.87 582.70,1299.87"/>
    </edge>
    <edge id=":164_0" function="internal">
        <lane id=":164_0_0" index="0" disallow="tram rail_urban rail rail_electric rail_fast ship" speed="3.90" length="2.58" shape="785.06,1229.79 785.06,1229.09 785.28,1228.55 785.74,1228.18 786.42,1227.99"/>
    </edge>
    <edge id=":165_0" function="internal">
        <lane id=":165_0_0" index="0" disallow="tram rail_urban rail rail_electric rail_fast ship" speed="6.51" length="9.02" shape="876.24,1159.36 876.24,1156.89 877.03,1155.01 878.61,1153.72 880.98,1153.02"/>
    </edge>
    <edge id=":165_1" function="internal">
        <lane id=":165_1_0" index="0" disallow="tram rail_urban rail rail_electric rail_fast ship" speed="13.89" length="11.16" shape="869.92,1154.55 880.98,1153.02"/>
    </edge>
    <edge id=":166_0" function="internal">
        <lane id=":166_0_0" index="0" disallow="tram rail_urban rail rail_electric rail_fast ship" speed="6.51" length="8.91" shape="633.67,1017.41 636.01,1016.75 637.59,1015.49 638.41,1013.65 638.48,1011.22"/>
    </edge>
    <edge id=":166_1" function="internal">