<?xml version="1.0" encoding="UTF-8"?>

<!-- generated on 2022-10-03 11:58:05 by Eclipse SUMO netconvert Version 1.12.0
<configuration xmlns:xsi="http://www.w3.org/2001/XMLSchema-instance" xsi:noNamespaceSchemaLocation="http://sumo.dlr.de/xsd/netconvertConfiguration.xsd">

    <input>
        <sumo-net-file value="/home/svadlmat/UTC/utc/data/maps/sumo/Sydney.net.xml"/>
    </input>

    <output>
        <output-file value="/home/svadlmat/UTC/utc/data/maps/sumo/11_27_53_Sydney_bottleneck_sg.net.xml"/>
    </output>

    <processing>
        <geometry.min-radius.fix.railways value="false"/>
        <geometry.max-grade.fix value="false"/>
        <offset.disable-normalization value="true"/>
        <lefthand value="false"/>
    </processing>

    <edge_removal>
        <keep-edges.explicit value="214,960,550,1033,233,417,551,563,643,145,634,479,99,985,772,280,670,621,664,599,1012,569,74,714,978,113,977,65,628,398,395,457,771,853,658,292,433,796,1013,357,587,831,494,867,1031,144,262,488,645,657,312,788,794,447,592,445,641,957,39,215,864,53,512,744,1007,709,617,189,741,216,208,217,661,500,345,706,249,415,384,248,656,44,342,969,552,449,891,152,333,1058,101,482,511,710,627,633,774,997,153,760,795,988,958,254,69,180,502,659,55,114,10,147,1023,146,1010,712,968,97,1027,311,513,635,1026,102,136,886,269,75,356,745,117,133,933,9,209,910,812,498,671,972,984,115,135,419,811,480,1032,787,975,1038,662,954,278,446,945,600,928,806,989,865,54,959,990,323,558,396,766,919,608,148,538,921,863,976,169,655,967,1024,134,87,341,932,584,669,644,279,743,237,1039,385,487,397,283,483,52,711,125,832,334,944,103,104,663,89,609,642,920,336,1030,759,679,660,922,946,929,866,232,636,56,943,338,499,14,707,317,416,230,768,758,218,890"/>
    </edge_removal>

    <junctions>
        <no-turnarounds value="true"/>
        <junctions.corner-detail value="5"/>
        <junctions.limit-turn-speed value="5.5"/>
        <rectangular-lane-cut value="false"/>
    </junctions>

    <pedestrian>
        <walkingareas value="false"/>
    </pedestrian>

    <report>
        <aggregate-warnings value="5"/>
    </report>

</configuration>
-->

<net version="1.9" junctionCornerDetail="5" limitTurnSpeed="5.50" xmlns:xsi="http://www.w3.org/2001/XMLSchema-instance" xsi:noNamespaceSchemaLocation="http://sumo.dlr.de/xsd/net_file.xsd">

    <location netOffset="-336586.08,3754670.31" convBoundary="0.00,12.34,2362.53,2154.71" origBoundary="151.232525,-33.920080,151.266296,-33.899237" projParameter="+proj=utm +zone=56 +ellps=WGS84 +datum=WGS84 +units=m +no_defs"/>

    <type id="highway.bridleway" priority="1" numLanes="1" speed="2.78" allow="pedestrian" oneway="1" width="2.00"/>
    <type id="highway.bus_guideway" priority="1" numLanes="1" speed="27.78" allow="bus" oneway="1"/>
    <type id="highway.cycleway" priority="1" numLanes="1" speed="8.33" allow="bicycle" oneway="0" width="1.00"/>
    <type id="highway.footway" priority="1" numLanes="1" speed="2.78" allow="pedestrian" oneway="1" width="2.00"/>
    <type id="highway.ford" priority="1" numLanes="1" speed="2.78" allow="army" oneway="0"/>
    <type id="highway.living_street" priority="2" numLanes="1" speed="2.78" disallow="tram rail_urban rail rail_electric rail_fast ship" oneway="0"/>
    <type id="highway.motorway" priority="14" numLanes="2" speed="39.44" allow="private emergency authority army vip passenger hov taxi bus coach delivery truck trailer motorcycle evehicle custom1 custom2" oneway="1"/>
    <type id="highway.motorway_link" priority="9" numLanes="1" speed="22.22" allow="private emergency authority army vip passenger hov taxi bus coach delivery truck trailer motorcycle evehicle custom1 custom2" oneway="1"/>
    <type id="highway.path" priority="1" numLanes="1" speed="2.78" allow="pedestrian bicycle" oneway="0" width="2.00"/>
    <type id="highway.pedestrian" priority="1" numLanes="1" speed="2.78" allow="pedestrian" oneway="1" width="2.00"/>
    <type id="highway.primary" priority="12" numLanes="2" speed="27.78" disallow="tram rail_urban rail rail_electric rail_fast ship" oneway="0"/>
    <type id="highway.primary_link" priority="7" numLanes="1" speed="22.22" disallow="tram rail_urban rail rail_electric rail_fast ship" oneway="0"/>
    <type id="highway.raceway" priority="15" numLanes="2" speed="83.33" allow="vip" oneway="0"/>
    <type id="highway.residential" priority="3" numLanes="1" speed="13.89" disallow="tram rail_urban rail rail_electric rail_fast ship" oneway="0"/>
    <type id="highway.secondary" priority="11" numLanes="1" speed="27.78" disallow="tram rail_urban rail rail_electric rail_fast ship" oneway="0"/>
    <type id="highway.secondary_link" priority="6" numLanes="1" speed="22.22" disallow="tram rail_urban rail rail_electric rail_fast ship" oneway="0"/>
    <type id="highway.service" priority="1" numLanes="1" speed="5.56" allow="pedestrian delivery bicycle" oneway="0"/>
    <type id="highway.stairs" priority="1" numLanes="1" speed="1.39" allow="pedestrian" oneway="1" width="2.00"/>
    <type id="highway.step" priority="1" numLanes="1" speed="1.39" allow="pedestrian" oneway="1" width="2.00"/>
    <type id="highway.steps" priority="1" numLanes="1" speed="1.39" allow="pedestrian" oneway="1" width="2.00"/>
    <type id="highway.tertiary" priority="10" numLanes="1" speed="22.22" disallow="tram rail_urban rail rail_electric rail_fast ship" oneway="0"/>
    <type id="highway.tertiary_link" priority="5" numLanes="1" speed="22.22" disallow="tram rail_urban rail rail_electric rail_fast ship" oneway="0"/>
    <type id="highway.track" priority="1" numLanes="1" speed="5.56" allow="pedestrian motorcycle moped bicycle" oneway="0"/>
    <type id="highway.trunk" priority="13" numLanes="2" speed="27.78" disallow="pedestrian bicycle tram rail_urban rail rail_electric rail_fast ship" oneway="0"/>
    <type id="highway.trunk_link" priority="8" numLanes="1" speed="22.22" disallow="pedestrian bicycle tram rail_urban rail rail_electric rail_fast ship" oneway="0"/>
    <type id="highway.unclassified" priority="4" numLanes="1" speed="13.89" disallow="tram rail_urban rail rail_electric rail_fast ship" oneway="0"/>
    <type id="highway.unsurfaced" priority="1" numLanes="1" speed="8.33" disallow="tram rail_urban rail rail_electric rail_fast ship" oneway="0"/>
    <type id="railway.highspeed" priority="21" numLanes="1" speed="69.44" allow="rail_fast" oneway="1"/>
    <type id="railway.light_rail" priority="19" numLanes="1" speed="27.78" allow="rail_urban" oneway="1"/>
    <type id="railway.preserved" priority="16" numLanes="1" speed="27.78" allow="rail" oneway="1"/>
    <type id="railway.rail" priority="20" numLanes="1" speed="44.44" allow="rail" oneway="1"/>
    <type id="railway.subway" priority="18" numLanes="1" speed="27.78" allow="rail_urban" oneway="1"/>
    <type id="railway.tram" priority="17" numLanes="1" speed="13.89" allow="tram" oneway="1"/>

    <edge id=":101_0" function="internal">
        <lane id=":101_0_0" index="0" disallow="tram rail_urban rail rail_electric rail_fast ship" speed="3.90" length="2.59" shape="1700.83,590.71 1701.50,590.50 1701.95,590.13 1702.17,589.58 1702.16,588.87"/>
    </edge>
    <edge id=":102_0" function="internal">
        <lane id=":102_0_0" index="0" disallow="tram rail_urban rail rail_electric rail_fast ship" speed="3.90" length="2.63" shape="1143.35,483.49 1143.38,484.21 1143.17,484.76 1142.72,485.15 1142.03,485.36"/>
    </edge>
    <edge id=":103_0" function="internal">
        <lane id=":103_0_0" index="0" disallow="tram rail_urban rail rail_electric rail_fast ship" speed="6.45" length="9.03" shape="2200.48,253.84 2199.80,251.45 2198.52,249.87 2196.64,249.10 2194.15,249.15"/>
    </edge>
    <edge id=":103_1" function="internal">
        <lane id=":103_1_0" index="0" disallow="tram rail_urban rail rail_electric rail_fast ship" speed="7.41" length="11.75" shape="2200.48,253.84 2200.30,249.95 2200.94,247.04 2202.41,245.12 2204.69,244.19"/>
    </edge>
    <edge id=":103_2" function="internal">
        <lane id=":103_2_0" index="0" disallow="tram rail_urban rail rail_electric rail_fast ship" speed="13.89" length="11.20" shape="2205.21,247.35 2194.15,249.15"/>
    </edge>
    <edge id=":103_3" function="internal">
        <lane id=":103_3_0" index="0" disallow="tram rail_urban rail rail_electric rail_fast ship" speed="3.65" length="1.23" shape="2205.21,247.35 2204.09,246.84"/>
    </edge>
    <edge id=":103_4" function="internal">
        <lane id=":103_4_0" index="0" disallow="tram rail_urban rail rail_electric rail_fast ship" speed="3.65" length="3.44" shape="2204.09,246.84 2203.89,246.75 2203.37,246.03 2203.64,245.17 2204.69,244.19"/>
    </edge>
    <edge id=":104_0" function="internal">
        <lane id=":104_0_0" index="0" disallow="tram rail_urban rail rail_electric rail_fast ship" speed="6.51" length="9.01" shape="1534.39,391.71 1533.65,389.36 1532.34,387.81 1530.45,387.05 1527.98,387.08"/>
    </edge>
    <edge id=":104_1" function="internal">
        <lane id=":104_1_0" index="0" disallow="tram rail_urban rail rail_electric rail_fast ship" speed="13.89" length="11.15" shape="1534.39,391.71 1532.61,380.71"/>
    </edge>
    <edge id=":104_2" function="internal">
        <lane id=":104_2_0" index="0" disallow="tram rail_urban rail rail_electric rail_fast ship" speed="7.31" length="2.51" shape="1535.76,380.20 1535.61,382.70"/>
    </edge>
    <edge id=":104_3" function="internal">
        <lane id=":104_3_0" index="0" disallow="tram rail_urban rail rail_electric rail_fast ship" speed="3.65" length="1.44" shape="1535.76,380.20 1535.17,381.51"/>
    </edge>
    <edge id=":104_4" function="internal">
        <lane id=":104_4_0" index="0" disallow="tram rail_urban rail rail_electric rail_fast ship" speed="7.31" length="9.19" shape="1535.61,382.70 1534.26,384.68 1531.72,386.14 1527.98,387.08"/>
    </edge>
    <edge id=":104_5" function="internal">
        <lane id=":104_5_0" index="0" disallow="tram rail_urban rail rail_electric rail_fast ship" speed="3.65" length="3.23" shape="1535.17,381.51 1534.44,382.03 1533.59,381.76 1532.61,380.71"/>
    </edge>
    <edge id=":105_0" function="internal">
        <lane id=":105_0_0" index="0" disallow="tram rail_urban rail rail_electric rail_fast ship" speed="6.40" length="9.04" shape="2217.08,380.44 2219.45,379.69 2220.98,378.36 2221.66,376.45 2221.48,373.96"/>
    </edge>
    <edge id=":105_1" function="internal">
        <lane id=":105_1_0" index="0" disallow="tram rail_urban rail rail_electric rail_fast ship" speed="13.89" length="11.20" shape="2217.08,380.44 2228.13,378.62"/>
    </edge>
    <edge id=":107_0" function="internal">
        <lane id=":107_0_0" index="0" disallow="tram rail_urban rail rail_electric rail_fast ship" speed="13.89" length="0.30" shape="947.76,196.75 948.05,196.69"/>
    </edge>
    <edge id=":108_0" function="internal">
        <lane id=":108_0_0" index="0" disallow="tram rail_urban rail rail_electric rail_fast ship" speed="6.38" length="9.04" shape="2320.01,233.94 2319.29,231.55 2317.98,230.01 2316.08,229.33 2313.59,229.49"/>
    </edge>
    <edge id=":108_1" function="internal">
        <lane id=":108_1_0" index="0" disallow="tram rail_urban rail rail_electric rail_fast ship" speed="13.89" length="14.39" shape="2320.01,233.94 2317.92,219.70"/>
    </edge>
    <edge id=":108_2" function="internal">
        <lane id=":108_2_0" index="0" disallow="tram rail_urban rail rail_electric rail_fast ship" speed="8.23" length="3.92" shape="2321.09,219.26 2321.06,223.04 2321.01,223.16"/>
    </edge>
    <edge id=":108_3" function="internal">
        <lane id=":108_3_0" index="0" disallow="tram rail_urban rail rail_electric rail_fast ship" speed="3.65" length="1.44" shape="2321.09,219.26 2320.46,220.56"/>
    </edge>
    <edge id=":108_6" function="internal">
        <lane id=":108_6_0" index="0" disallow="tram rail_urban rail rail_electric rail_fast ship" speed="8.23" length="10.34" shape="2321.01,223.16 2319.80,226.01 2317.31,228.16 2313.59,229.49"/>
    </edge>
    <edge id=":108_7" function="internal">
        <lane id=":108_7_0" index="0" disallow="tram rail_urban rail rail_electric rail_fast ship" speed="3.65" length="3.23" shape="2320.46,220.56 2319.73,221.07 2318.88,220.78 2317.92,219.70"/>
    </edge>
    <edge id=":108_4" function="internal">
        <lane id=":108_4_0" index="0" disallow="tram rail_urban rail rail_electric rail_fast ship" speed="6.77" length="9.34" shape="2312.94,226.36 2315.40,225.49 2317.06,224.09 2317.89,222.16 2317.92,219.70"/>
    </edge>
    <edge id=":108_5" function="internal">
        <lane id=":108_5_0" index="0" disallow="tram rail_urban rail rail_electric rail_fast ship" speed="3.65" length="4.67" shape="2312.94,226.36 2314.27,226.90 2314.83,227.60 2314.60,228.47 2313.59,229.49"/>
    </edge>
    <edge id=":109_0" function="internal">
        <lane id=":109_0_0" index="0" disallow="tram rail_urban rail rail_electric rail_fast ship" speed="3.90" length="2.59" shape="1139.50,453.78 1138.83,454.01 1138.39,454.39 1138.18,454.94 1138.21,455.65"/>
    </edge>
    <edge id=":110_0" function="internal">
        <lane id=":110_0_0" index="0" disallow="tram rail_urban rail rail_electric rail_fast ship" speed="13.89" length="0.10" shape="1704.03,238.50 1704.03,238.50"/>
    </edge>
    <edge id=":112_0" function="internal">
        <lane id=":112_0_0" index="0" disallow="tram rail_urban rail rail_electric rail_fast ship" speed="6.53" length="8.93" shape="1406.96,310.29 1406.20,307.96 1404.88,306.41 1403.01,305.65 1400.59,305.67"/>
    </edge>
    <edge id=":112_1" function="internal">
        <lane id=":112_1_0" index="0" disallow="tram rail_urban rail rail_electric rail_fast ship" speed="7.25" length="11.59" shape="1406.96,310.29 1406.63,306.48 1407.18,303.63 1408.60,301.73 1410.91,300.80"/>
    </edge>
    <edge id=":112_2" function="internal">
        <lane id=":112_2_0" index="0" disallow="tram rail_urban rail rail_electric rail_fast ship" speed="13.89" length="10.98" shape="1411.43,303.95 1400.59,305.67"/>
    </edge>
    <edge id=":112_3" function="internal">
        <lane id=":112_3_0" index="0" disallow="tram rail_urban rail rail_electric rail_fast ship" speed="3.65" length="1.23" shape="1411.43,303.95 1410.31,303.45"/>
    </edge>
    <edge id=":112_4" function="internal">
        <lane id=":112_4_0" index="0" disallow="tram rail_urban rail rail_electric rail_fast ship" speed="3.65" length="3.44" shape="1410.31,303.45 1410.12,303.36 1409.59,302.64 1409.86,301.78 1410.91,300.80"/>
    </edge>
    <edge id=":113_0" function="internal">
        <lane id=":113_0_0" index="0" disallow="tram rail_urban rail rail_electric rail_fast ship" speed="27.78" length="0.30" shape="1489.79,115.20 1489.75,114.90"/>
    </edge>
    <edge id=":114_0" function="internal">
        <lane id=":114_0_0" index="0" disallow="tram rail_urban rail rail_electric rail_fast ship" speed="4.00" length="1.74" shape="2078.36,177.96 2078.16,178.37 2077.89,178.68 2077.53,178.90 2077.10,179.02"/>
    </edge>
    <edge id=":116_0" function="internal">
        <lane id=":116_0_0" index="0" disallow="tram rail_urban rail rail_electric rail_fast ship" speed="13.89" length="0.29" shape="447.16,625.26 447.22,625.54"/>
    </edge>
    <edge id=":117_0" function="internal">
        <lane id=":117_0_0" index="0" disallow="tram rail_urban rail rail_electric rail_fast ship" speed="3.91" length="2.43" shape="1468.87,636.85 1468.86,636.19 1469.05,635.67 1469.45,635.28 1470.06,635.04"/>
    </edge>
    <edge id=":118_0" function="internal">
        <lane id=":118_0_0" index="0" disallow="tram rail_urban rail rail_electric rail_fast ship" speed="3.97" length="1.91" shape="2087.80,187.57 2087.78,187.07 2087.90,186.63 2088.15,186.26 2088.55,185.95"/>
    </edge>
    <edge id=":119_0" function="internal">
        <lane id=":119_0_0" index="0" disallow="tram rail_urban rail rail_electric rail_fast ship" speed="13.89" length="0.26" shape="1813.76,222.84 1813.50,222.88"/>
    </edge>
    <edge id=":122_0" function="internal">
        <lane id=":122_0_0" index="0" disallow="tram rail_urban rail rail_electric rail_fast ship" speed="13.89" length="0.13" shape="2208.58,314.09 2208.55,313.96"/>
    </edge>
    <edge id=":127_0" function="internal">
        <lane id=":127_0_0" index="0" disallow="tram rail_urban rail rail_electric rail_fast ship" speed="20.84" length="14.42" shape="1529.55,361.74 1527.33,347.49"/>
    </edge>
    <edge id=":127_1" function="internal">
        <lane id=":127_1_0" index="0" disallow="tram rail_urban rail rail_electric rail_fast ship" speed="7.99" length="14.21" shape="1529.55,361.74 1529.48,357.84 1530.67,354.86 1533.12,352.80 1536.84,351.66"/>
    </edge>
    <edge id=":127_2" function="internal">
        <lane id=":127_2_0" index="0" disallow="tram rail_urban rail rail_electric rail_fast ship" speed="3.65" length="4.67" shape="1529.55,361.74 1530.15,360.43 1530.87,359.90 1531.73,360.17 1532.71,361.23"/>
    </edge>
    <edge id=":127_3" function="internal">
        <lane id=":127_3_0" index="0" disallow="tram rail_urban rail rail_electric rail_fast ship" speed="6.50" length="9.04" shape="1537.35,354.82 1534.98,355.54 1533.42,356.85 1532.66,358.75 1532.71,361.23"/>
    </edge>
    <edge id=":127_4" function="internal">
        <lane id=":127_4_0" index="0" disallow="tram rail_urban rail rail_electric rail_fast ship" speed="7.98" length="14.17" shape="1537.35,354.82 1533.45,354.87 1530.49,353.66 1528.44,351.20 1527.33,347.49"/>
    </edge>
    <edge id=":127_5" function="internal">
        <lane id=":127_5_0" index="0" disallow="tram rail_urban rail rail_electric rail_fast ship" speed="3.65" length="4.67" shape="1537.35,354.82 1536.04,354.22 1535.51,353.49 1535.78,352.64 1536.84,351.66"/>
    </edge>
    <edge id=":129_0" function="internal">
        <lane id=":129_0_0" index="0" disallow="tram rail_urban rail rail_electric rail_fast ship" speed="22.22" length="0.18" shape="1916.45,1532.35 1916.31,1532.23"/>
    </edge>
    <edge id=":130_0" function="internal">
        <lane id=":130_0_0" index="0" disallow="tram rail_urban rail rail_electric rail_fast ship" speed="13.89" length="0.47" shape="1833.65,1082.58 1833.76,1082.49 1833.83,1082.43 1833.89,1082.35 1833.96,1082.24"/>
    </edge>
    <edge id=":132_0" function="internal">
        <lane id=":132_0_0" index="0" disallow="tram rail_urban rail rail_electric rail_fast ship" speed="27.78" length="10.92" shape="1767.23,1120.44 1765.52,1109.65"/>
    </edge>
    <edge id=":132_1" function="internal">
        <lane id=":132_1_0" index="0" disallow="tram rail_urban rail rail_electric rail_fast ship" speed="7.25" length="9.37" shape="1767.23,1120.44 1767.20,1118.05 1767.94,1116.03 1769.43,1114.38 1771.69,1113.09"/>
    </edge>
    <edge id=":132_2" function="internal">
        <lane id=":132_2_0" index="0" disallow="tram rail_urban rail rail_electric rail_fast ship" speed="6.69" length="9.01" shape="1761.11,1116.37 1763.36,1115.47 1764.85,1114.05 1765.57,1112.11 1765.52,1109.65"/>
    </edge>
    <edge id=":132_3" function="internal">
        <lane id=":132_3_0" index="0" disallow="tram rail_urban rail rail_electric rail_fast ship" speed="15.28" length="11.09" shape="1761.11,1116.37 1764.17,1115.63 1766.49,1115.01 1768.78,1114.25 1771.69,1113.09"/>
    </edge>
    <edge id=":133_0" function="internal">
        <lane id=":133_0_0" index="0" disallow="tram rail_urban rail rail_electric rail_fast ship" speed="13.89" length="0.20" shape="1930.10,967.00 1930.16,966.99 1930.20,966.98 1930.24,966.97 1930.29,966.96"/>
    </edge>
    <edge id=":135_0" function="internal">
        <lane id=":135_0_0" index="0" disallow="tram rail_urban rail rail_electric rail_fast ship" speed="3.90" length="2.58" shape="1837.42,1205.36 1837.21,1204.69 1836.83,1204.25 1836.29,1204.03 1835.58,1204.05"/>
    </edge>
    <edge id=":136_0" function="internal">
        <lane id=":136_0_0" index="0" disallow="tram rail_urban rail rail_electric rail_fast ship" speed="22.23" length="0.10" shape="1762.63,1090.74 1762.64,1090.82"/>
    </edge>
    <edge id=":139_0" function="internal">
        <lane id=":139_0_0" index="0" disallow="tram rail_urban rail rail_electric rail_fast ship" speed="22.22" length="0.10" shape="1977.12,1673.13 1977.11,1673.05"/>
    </edge>
    <edge id=":140_0" function="internal">
        <lane id=":140_0_0" index="0" disallow="tram rail_urban rail rail_electric rail_fast ship" speed="13.89" length="0.10" shape="1525.29,1636.53 1525.29,1636.53"/>
    </edge>
    <edge id=":145_0" function="internal">
        <lane id=":145_0_0" index="0" disallow="tram rail_urban rail rail_electric rail_fast ship" speed="3.90" length="2.59" shape="1862.52,1367.78 1863.20,1367.57 1863.65,1367.19 1863.86,1366.65 1863.85,1365.94"/>
    </edge>
    <edge id=":153_0" function="internal">
        <lane id=":153_0_0" index="0" disallow="tram rail_urban rail rail_electric rail_fast ship" speed="13.89" length="0.10" shape="512.18,1661.23 512.18,1661.23"/>
    </edge>
    <edge id=":156_0" function="internal">
        <lane id=":156_0_0" index="0" disallow="tram rail_urban rail rail_electric rail_fast ship" speed="3.90" length="2.58" shape="792.10,1697.68 792.78,1697.48 793.23,1697.11 793.45,1696.57 793.44,1695.86"/>
    </edge>
    <edge id=":158_0" function="internal">
        <lane id=":158_0_0" index="0" disallow="tram rail_urban rail rail_electric rail_fast ship" speed="13.89" length="0.10" shape="200.15,1454.86 200.15,1454.86"/>
    </edge>
    <edge id=":160_0" function="internal">
        <lane id=":160_0_0" index="0" disallow="tram rail_urban rail rail_electric rail_fast ship" speed="3.90" length="2.59" shape="838.64,1158.82 839.32,1158.61 839.77,1158.24 839.99,1157.70 839.98,1156.99"/>
    </edge>
    <edge id=":161_0" function="internal">
        <lane id=":161_0_0" index="0" disallow="tram rail_urban rail rail_electric rail_fast ship" speed="13.89" length="0.29" shape="725.67,1237.54 725.63,1237.25"/>
    </edge>
    <edge id=":162_0" function="internal">
        <lane id=":162_0_0" index="0" disallow="tram rail_urban rail rail_electric rail_fast ship" speed="6.52" length="9.02" shape="678.26,1708.44 678.96,1710.81 680.25,1712.40 682.12,1713.20 684.58,1713.21"/>
    </edge>
    <edge id=":162_1" function="internal">
        <lane id=":162_1_0" index="0" disallow="tram rail_urban rail rail_electric rail_fast ship" speed="22.22" length="11.10" shape="678.26,1708.44 679.85,1719.42"/>
    </edge>
    <edge id=":162_2" function="internal">
        <lane id=":162_2_0" index="0" disallow="tram rail_urban rail rail_electric rail_fast ship" speed="13.89" length="11.09" shape="673.60,1714.72 684.58,1713.21"/>
    </edge>
    <edge id=":162_3" function="internal">
        <lane id=":162_3_0" index="0" disallow="tram rail_urban rail rail_electric rail_fast ship" speed="6.45" length="8.94" shape="673.60,1714.72 676.05,1714.71 677.90,1715.48 679.17,1717.06 679.85,1719.42"/>
    </edge>
    <edge id=":163_0" function="internal">
        <lane id=":163_0_0" index="0" disallow="tram rail_urban rail rail_electric rail_fast ship" speed="13.89" length="0.10" shape="582.70,1299.87 582.70,1299.87"/>
    </edge>
    <edge id=":169_0" function="internal">
        <lane id=":169_0_0" index="0" disallow="tram rail_urban rail rail_electric rail_fast ship" speed="8.13" length="8.62" shape="701.11,1865.66 700.98,1867.25 700.18,1868.94 698.71,1870.73 696.58,1872.62"/>
    </edge>
    <edge id=":171_0" function="internal">
        <lane id=":171_0_0" index="0" disallow="tram rail_urban rail rail_electric rail_fast ship" speed="13.89" length="0.18" shape="545.80,1031.25 545.82,1031.44"/>
    </edge>
    <edge id=":172_0" function="internal">
        <lane id=":172_0_0" index="0" disallow="tram rail_urban rail rail_electric rail_fast ship" speed="22.22" length="0.26" shape="686.82,1769.39 686.86,1769.65"/>
    </edge>
    <edge id=":173_0" function="internal">
        <lane id=":173_0_0" index="0" disallow="tram rail_urban rail rail_electric rail_fast ship" speed="13.89" length="0.10" shape="556.24,1691.29 556.17,1691.24"/>
    </edge>
    <edge id=":175_0" function="internal">
        <lane id=":175_0_0" index="0" disallow="tram rail_urban rail rail_electric rail_fast ship" speed="5.89" length="7.33" shape="595.92,1392.21 596.50,1394.61 597.38,1396.25 598.58,1397.12 600.10,1397.21"/>
    </edge>
    <edge id=":175_1" function="internal">
        <lane id=":175_1_0" index="0" disallow="tram rail_urban rail rail_electric rail_fast ship" speed="13.89" length="8.97" shape="591.26,1398.71 600.10,1397.21"/>
    </edge>
    <edge id=":176_0" function="internal">
        <lane id=":176_0_0" index="0" disallow="tram rail_urban rail rail_electric rail_fast ship" speed="27.78" length="0.26" shape="838.80,1905.58 839.06,1905.64"/>
    </edge>
    <edge id=":178_0" function="internal">
        <lane id=":178_0_0" index="0" disallow="tram rail_urban rail rail_electric rail_fast ship" speed="22.22" length="3.20" shape="636.72,1428.12 637.11,1428.99 637.41,1429.58 637.65,1430.18 637.84,1431.10"/>
    </edge>
    <edge id=":179_0" function="internal">
        <lane id=":179_0_0" index="0" disallow="tram rail_urban rail rail_electric rail_fast ship" speed="3.91" length="2.54" shape="716.96,1178.38 716.96,1177.69 717.18,1177.15 717.62,1176.79 718.29,1176.58"/>
    </edge>
    <edge id=":180_0" function="internal">
        <lane id=":180_0_0" index="0" disallow="tram rail_urban rail rail_electric rail_fast ship" speed="13.89" length="11.26" shape="779.57,1603.05 777.90,1591.92"/>
    </edge>
    <edge id=":180_1" function="internal">
        <lane id=":180_1_0" index="0" disallow="tram rail_urban rail rail_electric rail_fast ship" speed="7.39" length="7.53" shape="779.57,1603.05 779.75,1600.55 781.13,1598.55 783.38,1597.25"/>
    </edge>
    <edge id=":180_4" function="internal">
        <lane id=":180_4_0" index="0" disallow="tram rail_urban rail rail_electric rail_fast ship" speed="7.39" length="4.25" shape="783.38,1597.25 783.69,1597.06 787.45,1596.08"/>
    </edge>
    <edge id=":180_2" function="internal">
        <lane id=":180_2_0" index="0" disallow="tram rail_urban rail rail_electric rail_fast ship" speed="6.47" length="9.03" shape="781.07,1591.44 781.78,1593.82 783.08,1595.39 784.97,1596.14 787.45,1596.08"/>
    </edge>
    <edge id=":180_3" function="internal">
        <lane id=":180_3_0" index="0" disallow="tram rail_urban rail rail_electric rail_fast ship" speed="3.65" length="1.44" shape="781.07,1591.44 780.46,1592.75"/>
    </edge>
    <edge id=":180_5" function="internal">
        <lane id=":180_5_0" index="0" disallow="tram rail_urban rail rail_electric rail_fast ship" speed="3.65" length="3.23" shape="780.46,1592.75 779.72,1593.26 778.87,1592.99 777.90,1591.92"/>
    </edge>
    <edge id=":181_0" function="internal">
        <lane id=":181_0_0" index="0" disallow="tram rail_urban rail rail_electric rail_fast ship" speed="13.89" length="0.10" shape="407.99,1425.27 407.99,1425.27"/>
    </edge>
    <edge id=":182_0" function="internal">
        <lane id=":182_0_0" index="0" disallow="tram rail_urban rail rail_electric rail_fast ship" speed="13.89" length="0.30" shape="309.34,1439.37 309.64,1439.32"/>
    </edge>
    <edge id=":183_0" function="internal">
        <lane id=":183_0_0" index="0" disallow="tram rail_urban rail rail_electric rail_fast ship" speed="4.07" length="4.48" shape="1103.16,1690.57 1103.54,1691.93 1104.13,1692.51 1104.94,1692.32 1105.97,1691.35"/>
    </edge>
    <edge id=":185_0" function="internal">
        <lane id=":185_0_0" index="0" disallow="tram rail_urban rail rail_electric rail_fast ship" speed="13.89" length="11.61" shape="820.53,312.39 818.82,300.90"/>
        <lane id=":185_0_1" index="1" disallow="tram rail_urban rail rail_electric rail_fast ship" speed="13.89" length="11.61" shape="823.70,311.91 821.98,300.43"/>
    </edge>
    <edge id=":185_2" function="internal">
        <lane id=":185_2_0" index="0" disallow="tram rail_urban rail rail_electric rail_fast ship" speed="12.29" length="16.40" shape="823.70,311.91 823.97,309.49 825.41,306.36 828.01,302.53 831.77,298.00"/>
    </edge>
    <edge id=":185_3" function="internal">
        <lane id=":185_3_0" index="0" disallow="tram rail_urban rail rail_electric rail_fast ship" speed="3.65" length="4.67" shape="823.70,311.91 824.31,310.61 825.04,310.09 825.89,310.37 826.86,311.44"/>
    </edge>
    <edge id=":185_4" function="internal">
        <lane id=":185_4_0" index="0" disallow="tram rail_urban rail rail_electric rail_fast ship" speed="6.59" length="9.37" shape="814.14,307.64 816.52,306.93 818.09,305.57 818.86,303.56 818.82,300.90"/>
    </edge>
    <edge id=":185_5" function="internal">
        <lane id=":185_5_0" index="0" disallow="tram rail_urban rail rail_electric rail_fast ship" speed="16.00" length="20.32" shape="814.14,307.64 818.52,306.37 823.57,303.96 828.31,300.98 831.77,298.00"/>
    </edge>
    <edge id=":185_6" function="internal">
        <lane id=":185_6_0" index="0" disallow="tram rail_urban rail rail_electric rail_fast ship" speed="8.13" length="14.56" shape="814.14,307.64 819.40,307.26 823.27,307.76 825.76,309.16 826.86,311.44"/>
    </edge>
    <edge id=":186_0" function="internal">
        <lane id=":186_0_0" index="0" disallow="tram rail_urban rail rail_electric rail_fast ship" speed="15.28" length="11.32" shape="1571.04,616.81 1569.21,605.63"/>
    </edge>
    <edge id=":186_1" function="internal">
        <lane id=":186_1_0" index="0" disallow="tram rail_urban rail rail_electric rail_fast ship" speed="6.48" length="9.03" shape="1571.04,616.81 1570.99,614.33 1571.74,612.44 1573.31,611.13 1575.68,610.41"/>
    </edge>
    <edge id=":186_2" function="internal">
        <lane id=":186_2_0" index="0" disallow="tram rail_urban rail rail_electric rail_fast ship" speed="6.43" length="9.03" shape="1564.51,611.92 1566.91,611.27 1568.49,610.00 1569.26,608.12 1569.21,605.63"/>
    </edge>
    <edge id=":186_3" function="internal">