<?xml version="1.0" encoding="UTF-8"?>

<!-- generated on 2022-10-03 12:50:22 by Eclipse SUMO netconvert Version 1.12.0
<configuration xmlns:xsi="http://www.w3.org/2001/XMLSchema-instance" xsi:noNamespaceSchemaLocation="http://sumo.dlr.de/xsd/netconvertConfiguration.xsd">

    <input>
        <sumo-net-file value="/home/svadlmat/UTC/utc/data/maps/sumo/Dejvice.net.xml"/>
    </input>

    <output>
        <output-file value="/home/svadlmat/UTC/utc/data/maps/sumo/12_50_21_Dejvice_similarity_minimal_similarity_sg.net.xml"/>
    </output>

    <processing>
        <geometry.min-radius.fix.railways value="false"/>
        <geometry.max-grade.fix value="false"/>
        <offset.disable-normalization value="true"/>
        <lefthand value="false"/>
    </processing>

    <edge_removal>
        <keep-edges.explicit value="6,56,155,113,118,77,176,7,102,131,75,103,18,20,13,125,183,164,30,115,50,170,162,78,149,27,126,124,166,98,168,136,174,64,157,105,121,83,88,87,43,36,99,95,144,152,24,154,76,163,130,15,135,114,29,151,47,26,143,86,142,70,100,73,139,167,97,101,148,74,60,1,89,61,127,35,14,23,79,41,63"/>
    </edge_removal>

    <junctions>
        <no-turnarounds value="true"/>
        <junctions.corner-detail value="5"/>
        <junctions.limit-turn-speed value="5.5"/>
        <rectangular-lane-cut value="false"/>
    </junctions>

    <pedestrian>
        <walkingareas value="false"/>
    </pedestrian>

    <report>
        <aggregate-warnings value="5"/>
    </report>

</configuration>
-->

<net version="1.9" junctionCornerDetail="5" limitTurnSpeed="5.50" xmlns:xsi="http://www.w3.org/2001/XMLSchema-instance" xsi:noNamespaceSchemaLocation="http://sumo.dlr.de/xsd/net_file.xsd">

    <location netOffset="-456549.58,-5550032.66" convBoundary="107.74,0.00,1099.45,942.19" origBoundary="14.392383,50.101022,14.411015,50.110847" projParameter="+proj=utm +zone=33 +ellps=WGS84 +datum=WGS84 +units=m +no_defs"/>

    <type id="highway.bridleway" priority="1" numLanes="1" speed="2.78" allow="pedestrian" oneway="1" width="2.00"/>
    <type id="highway.bus_guideway" priority="1" numLanes="1" speed="27.78" allow="bus" oneway="1"/>
    <type id="highway.cycleway" priority="1" numLanes="1" speed="8.33" allow="bicycle" oneway="0" width="1.00"/>
    <type id="highway.footway" priority="1" numLanes="1" speed="2.78" allow="pedestrian" oneway="1" width="2.00"/>
    <type id="highway.ford" priority="1" numLanes="1" speed="2.78" allow="army" oneway="0"/>
    <type id="highway.living_street" priority="2" numLanes="1" speed="2.78" disallow="tram rail_urban rail rail_electric rail_fast ship" oneway="0"/>
    <type id="highway.motorway" priority="14" numLanes="2" speed="39.44" allow="private emergency authority army vip passenger hov taxi bus coach delivery truck trailer motorcycle evehicle custom1 custom2" oneway="1"/>
    <type id="highway.motorway_link" priority="9" numLanes="1" speed="22.22" allow="private emergency authority army vip passenger hov taxi bus coach delivery truck trailer motorcycle evehicle custom1 custom2" oneway="1"/>
    <type id="highway.path" priority="1" numLanes="1" speed="2.78" allow="pedestrian bicycle" oneway="0" width="2.00"/>
    <type id="highway.pedestrian" priority="1" numLanes="1" speed="2.78" allow="pedestrian" oneway="1" width="2.00"/>
    <type id="highway.primary" priority="12" numLanes="2" speed="27.78" disallow="tram rail_urban rail rail_electric rail_fast ship" oneway="0"/>
    <type id="highway.primary_link" priority="7" numLanes="1" speed="22.22" disallow="tram rail_urban rail rail_electric rail_fast ship" oneway="0"/>
    <type id="highway.raceway" priority="15" numLanes="2" speed="83.33" allow="vip" oneway="0"/>
    <type id="highway.residential" priority="3" numLanes="1" speed="13.89" disallow="tram rail_urban rail rail_electric rail_fast ship" oneway="0"/>
    <type id="highway.secondary" priority="11" numLanes="1" speed="27.78" disallow="tram rail_urban rail rail_electric rail_fast ship" oneway="0"/>
    <type id="highway.secondary_link" priority="6" numLanes="1" speed="22.22" disallow="tram rail_urban rail rail_electric rail_fast ship" oneway="0"/>
    <type id="highway.service" priority="1" numLanes="1" speed="5.56" allow="pedestrian delivery bicycle" oneway="0"/>
    <type id="highway.stairs" priority="1" numLanes="1" speed="1.39" allow="pedestrian" oneway="1" width="2.00"/>
    <type id="highway.step" priority="1" numLanes="1" speed="1.39" allow="pedestrian" oneway="1" width="2.00"/>
    <type id="highway.steps" priority="1" numLanes="1" speed="1.39" allow="pedestrian" oneway="1" width="2.00"/>
    <type id="highway.tertiary" priority="10" numLanes="1" speed="22.22" disallow="tram rail_urban rail rail_electric rail_fast ship" oneway="0"/>
    <type id="highway.tertiary_link" priority="5" numLanes="1" speed="22.22" disallow="tram rail_urban rail rail_electric rail_fast ship" oneway="0"/>
    <type id="highway.track" priority="1" numLanes="1" speed="5.56" allow="pedestrian motorcycle moped bicycle" oneway="0"/>
    <type id="highway.trunk" priority="13" numLanes="2" speed="27.78" disallow="pedestrian bicycle tram rail_urban rail rail_electric rail_fast ship" oneway="0"/>
    <type id="highway.trunk_link" priority="8" numLanes="1" speed="22.22" disallow="pedestrian bicycle tram rail_urban rail rail_electric rail_fast ship" oneway="0"/>
    <type id="highway.unclassified" priority="4" numLanes="1" speed="13.89" disallow="tram rail_urban rail rail_electric rail_fast ship" oneway="0"/>
    <type id="highway.unsurfaced" priority="1" numLanes="1" speed="8.33" disallow="tram rail_urban rail rail_electric rail_fast ship" oneway="0"/>
    <type id="railway.highspeed" priority="21" numLanes="1" speed="69.44" allow="rail_fast" oneway="1"/>
    <type id="railway.light_rail" priority="19" numLanes="1" speed="27.78" allow="rail_urban" oneway="1"/>
    <type id="railway.preserved" priority="16" numLanes="1" speed="27.78" allow="rail" oneway="1"/>
    <type id="railway.rail" priority="20" numLanes="1" speed="44.44" allow="rail" oneway="1"/>
    <type id="railway.subway" priority="18" numLanes="1" speed="27.78" allow="rail_urban" oneway="1"/>
    <type id="railway.tram" priority="17" numLanes="1" speed="13.89" allow="tram" oneway="1"/>

    <edge id=":1_0" function="internal">
        <lane id=":1_0_0" index="0" disallow="tram rail_urban rail rail_electric rail_fast ship" speed="27.78" length="8.21" shape="176.61,611.16 176.69,613.57 177.12,615.21 177.55,616.85 177.61,619.26"/>
        <lane id=":1_0_1" index="1" disallow="tram rail_urban rail rail_electric rail_fast ship" speed="27.78" length="8.21" shape="176.61,611.16 176.19,613.53 175.53,615.09 174.86,616.64 174.42,619.01"/>
    </edge>
    <edge id=":10_0" function="internal">
        <lane id=":10_0_0" index="0" disallow="tram rail_urban rail rail_electric rail_fast ship" speed="27.78" length="0.28" shape="158.75,536.98 158.77,536.70"/>
    </edge>
    <edge id=":14_0" function="internal">
        <lane id=":14_0_0" index="0" disallow="tram rail_urban rail rail_electric rail_fast ship" speed="27.78" length="0.27" shape="205.75,227.89 205.73,228.15"/>
    </edge>
    <edge id=":2_0" function="internal">
        <lane id=":2_0_0" index="0" disallow="tram rail_urban rail rail_electric rail_fast ship" speed="27.78" length="8.21" shape="166.74,742.87 166.80,745.28 167.23,746.92 167.66,748.56 167.74,750.96"/>
        <lane id=":2_0_1" index="1" disallow="tram rail_urban rail rail_electric rail_fast ship" speed="27.78" length="8.21" shape="166.74,742.87 166.30,745.24 165.63,746.80 164.97,748.36 164.55,750.73"/>
    </edge>
    <edge id=":23_0" function="internal">
        <lane id=":23_0_0" index="0" disallow="tram rail_urban rail rail_electric rail_fast ship" speed="13.89" length="11.22" shape="518.80,305.89 529.29,309.88"/>
    </edge>
    <edge id=":23_1" function="internal">
        <lane id=":23_1_0" index="0" disallow="tram rail_urban rail rail_electric rail_fast ship" speed="6.48" length="9.03" shape="518.80,305.89 520.98,307.07 522.24,308.67 522.60,310.67 522.05,313.09"/>
    </edge>
    <edge id=":24_0" function="internal">
        <lane id=":24_0_0" index="0" disallow="tram rail_urban rail rail_electric rail_fast ship" speed="13.89" length="11.16" shape="639.06,350.48 649.52,354.38"/>
    </edge>
    <edge id=":24_1" function="internal">
        <lane id=":24_1_0" index="0" disallow="tram rail_urban rail rail_electric rail_fast ship" speed="6.52" length="9.01" shape="642.31,357.64 643.51,355.48 645.11,354.21 647.12,353.85 649.52,354.38"/>
    </edge>
    <edge id=":27_0" function="internal">
        <lane id=":27_0_0" index="0" disallow="tram rail_urban rail rail_electric rail_fast ship" speed="22.22" length="11.24" shape="932.36,245.01 935.07,255.92"/>
    </edge>
    <edge id=":27_1" function="internal">
        <lane id=":27_1_0" index="0" disallow="tram rail_urban rail rail_electric rail_fast ship" speed="6.30" length="9.04" shape="932.36,245.01 932.63,247.51 932.01,249.42 930.50,250.74 928.09,251.47"/>
    </edge>
    <edge id=":3_0" function="internal">
        <lane id=":3_0_0" index="0" disallow="tram rail_urban rail rail_electric rail_fast ship" speed="27.78" length="8.19" shape="146.32,724.04 146.20,721.63 145.74,719.99 145.30,718.36 145.22,715.95"/>
        <lane id=":3_0_1" index="1" disallow="tram rail_urban rail rail_electric rail_fast ship" speed="27.78" length="8.19" shape="146.32,724.04 146.69,721.67 147.34,720.11 147.99,718.55 148.41,716.18"/>
    </edge>
    <edge id=":31_0" function="internal">
        <lane id=":31_0_0" index="0" disallow="tram rail_urban rail rail_electric rail_fast ship" speed="27.78" length="0.27" shape="196.00,366.83 195.97,367.09"/>
    </edge>
    <edge id=":35_0" function="internal">
        <lane id=":35_0_0" index="0" disallow="tram rail_urban rail rail_electric rail_fast ship" speed="8.33" length="0.10" shape="255.26,514.13 255.26,514.13"/>
    </edge>
    <edge id=":36_0" function="internal">
        <lane id=":36_0_0" index="0" disallow="tram rail_urban rail rail_electric rail_fast ship" speed="7.10" length="10.32" shape="320.35,532.99 322.80,533.23 324.90,532.45 326.64,530.66 328.02,527.86"/>
    </edge>
    <edge id=":36_1" function="internal">
        <lane id=":36_1_0" index="0" disallow="tram rail_urban rail rail_electric rail_fast ship" speed="8.33" length="11.22" shape="320.35,532.99 323.43,533.61 325.89,533.72 328.36,533.81 331.46,534.34"/>
    </edge>
    <edge id=":36_2" function="internal">
        <lane id=":36_2_0" index="0" disallow="tram rail_urban rail rail_electric rail_fast ship" speed="18.05" length="12.51" shape="323.65,539.57 328.02,527.86"/>
    </edge>
    <edge id=":36_3" function="internal">
        <lane id=":36_3_0" index="0" disallow="tram rail_urban rail rail_electric rail_fast ship" speed="7.25" length="10.42" shape="323.65,539.57 325.08,536.79 326.86,534.99 328.99,534.17 331.46,534.34"/>
    </edge>
    <edge id=":37_0" function="internal">
        <lane id=":37_0_0" index="0" disallow="tram rail_urban rail rail_electric rail_fast ship" speed="22.22" length="0.26" shape="373.35,406.19 373.44,405.95"/>
    </edge>
    <edge id=":38_0" function="internal">
        <lane id=":38_0_0" index="0" disallow="tram rail_urban rail rail_electric rail_fast ship" speed="3.91" length="2.46" shape="494.84,387.54 494.70,388.19 494.80,388.74 495.13,389.19 495.70,389.55"/>
    </edge>
    <edge id=":39_0" function="internal">
        <lane id=":39_0_0" index="0" disallow="tram rail_urban rail rail_electric rail_fast ship" speed="7.45" length="9.46" shape="596.85,445.42 595.51,443.43 594.98,441.31 595.25,439.06 596.33,436.69"/>
    </edge>
    <edge id=":39_1" function="internal">
        <lane id=":39_1_0" index="0" disallow="tram rail_urban rail rail_electric rail_fast ship" speed="6.36" length="9.04" shape="588.70,438.29 590.93,439.42 592.94,439.53 594.74,438.62 596.33,436.69"/>
    </edge>
    <edge id=":4_0" function="internal">
        <lane id=":4_0_0" index="0" disallow="tram rail_urban rail rail_electric rail_fast ship" speed="18.05" length="12.25" shape="960.99,363.88 964.04,375.74"/>
    </edge>
    <edge id=":4_1" function="internal">
        <lane id=":4_1_0" index="0" disallow="tram rail_urban rail rail_electric rail_fast ship" speed="5.51" length="9.55" shape="957.89,374.74 959.83,372.46 961.51,371.87 962.91,372.96 964.04,375.74"/>
    </edge>
    <edge id=":40_0" function="internal">
        <lane id=":40_0_0" index="0" disallow="tram rail_urban rail rail_electric rail_fast ship" speed="8.33" length="0.76" shape="467.54,543.98 467.74,544.06 467.89,544.11 468.05,544.12 468.27,544.12"/>
    </edge>
    <edge id=":41_0" function="internal">
        <lane id=":41_0_0" index="0" disallow="tram rail_urban rail rail_electric rail_fast ship" speed="3.90" length="2.75" shape="440.69,533.70 441.04,533.02 441.52,532.64 442.13,532.56 442.86,532.77"/>
    </edge>
    <edge id=":42_0" function="internal">
        <lane id=":42_0_0" index="0" disallow="tram rail_urban rail rail_electric rail_fast ship" speed="6.65" length="8.57" shape="427.75,555.69 429.98,555.84 431.82,555.22 433.27,553.84 434.35,551.70"/>
    </edge>
    <edge id=":42_1" function="internal">
        <lane id=":42_1_0" index="0" disallow="tram rail_urban rail rail_electric rail_fast ship" speed="8.33" length="10.24" shape="427.75,555.69 430.70,556.30 432.77,556.78 434.76,557.46 437.49,558.71"/>
    </edge>
    <edge id=":43_0" function="internal">
        <lane id=":43_0_0" index="0" disallow="tram rail_urban rail rail_electric rail_fast ship" speed="8.33" length="0.70" shape="452.46,566.02 452.64,566.12 452.76,566.19 452.86,566.29 453.00,566.45"/>
    </edge>
    <edge id=":44_0" function="internal">
        <lane id=":44_0_0" index="0" disallow="tram rail_urban rail rail_electric rail_fast ship" speed="11.11" length="13.63" shape="640.65,703.62 644.00,704.77 647.13,705.78 650.18,706.97 653.28,708.64"/>
    </edge>
    <edge id=":44_1" function="internal">
        <lane id=":44_1_0" index="0" disallow="tram rail_urban rail rail_electric rail_fast ship" speed="6.60" length="7.60" shape="640.65,703.62 643.11,704.71 644.82,705.86 645.78,707.08 646.00,708.35"/>
    </edge>
    <edge id=":44_2" function="internal">
        <lane id=":44_2_0" index="0" disallow="tram rail_urban rail rail_electric rail_fast ship" speed="6.62" length="12.58" shape="642.83,707.98 643.72,705.95 645.77,705.38 648.95,706.28 653.28,708.64"/>
    </edge>
    <edge id=":44_3" function="internal">
        <lane id=":44_3_0" index="0" disallow="tram rail_urban rail rail_electric rail_fast ship" speed="3.65" length="4.67" shape="642.83,707.98 643.76,706.88 644.60,706.58 645.35,707.07 646.00,708.35"/>
    </edge>
    <edge id=":45_0" function="internal">
        <lane id=":45_0_0" index="0" disallow="tram rail_urban rail rail_electric rail_fast ship" speed="5.94" length="9.91" shape="643.67,735.30 644.74,738.28 646.24,739.81 648.15,739.89 650.48,738.53"/>
    </edge>
    <edge id=":45_1" function="internal">
        <lane id=":45_1_0" index="0" disallow="tram rail_urban rail rail_electric rail_fast ship" speed="3.65" length="4.67" shape="643.67,735.30 643.16,736.66 642.47,737.23 641.60,737.02 640.55,736.03"/>
    </edge>
    <edge id=":45_2" function="internal">
        <lane id=":45_2_0" index="0" disallow="tram rail_urban rail rail_electric rail_fast ship" speed="5.58" length="9.36" shape="635.60,740.28 638.37,741.01 640.12,740.55 640.85,738.89 640.55,736.03"/>
    </edge>
    <edge id=":45_3" function="internal">
        <lane id=":45_3_0" index="0" disallow="tram rail_urban rail rail_electric rail_fast ship" speed="10.56" length="15.77" shape="635.60,740.28 639.73,741.47 643.59,741.57 647.17,740.59 650.48,738.53"/>
    </edge>
    <edge id=":46_0" function="internal">
        <lane id=":46_0_0" index="0" disallow="bus tram rail_urban rail rail_electric rail_fast ship" speed="6.11" length="9.06" shape="678.42,720.15 676.59,721.95 675.92,723.80 676.40,725.71 678.04,727.67"/>
    </edge>
    <edge id=":46_1" function="internal">
        <lane id=":46_1_0" index="0" disallow="bus tram rail_urban rail rail_electric rail_fast ship" speed="3.65" length="1.44" shape="678.42,720.15 676.98,720.22"/>
    </edge>
    <edge id=":46_6" function="internal">
        <lane id=":46_6_0" index="0" disallow="bus tram rail_urban rail rail_electric rail_fast ship" speed="3.65" length="3.23" shape="676.98,720.22 676.18,719.81 676.03,718.93 676.53,717.57"/>
    </edge>
    <edge id=":46_2" function="internal">
        <lane id=":46_2_0" index="0" disallow="bus tram rail_urban rail rail_electric rail_fast ship" speed="8.02" length="10.16" shape="667.01,717.30 669.60,718.58 672.05,719.05 674.36,718.71 676.53,717.57"/>
    </edge>
    <edge id=":46_3" function="internal">
        <lane id=":46_3_0" index="0" disallow="tram rail_urban rail rail_electric rail_fast ship" speed="13.89" length="15.17" shape="667.01,717.30 670.00,719.58 672.72,722.24 675.35,725.02 678.04,727.67"/>
    </edge>
    <edge id=":46_4" function="internal">
        <lane id=":46_4_0" index="0" disallow="bus tram rail_urban rail rail_electric rail_fast ship" speed="11.11" length="12.01" shape="667.03,724.92 676.53,717.57"/>
    </edge>
    <edge id=":46_5" function="internal">
        <lane id=":46_5_0" index="0" disallow="tram rail_urban rail rail_electric rail_fast ship" speed="7.95" length="8.15" shape="667.03,724.92 669.28,723.81 671.86,723.90 674.66,725.14"/>
    </edge>
    <edge id=":46_7" function="internal">
        <lane id=":46_7_0" index="0" disallow="tram rail_urban rail rail_electric rail_fast ship" speed="7.95" length="4.23" shape="674.66,725.14 674.78,725.19 678.04,727.67"/>
    </edge>
    <edge id=":47_0" function="internal">
        <lane id=":47_0_0" index="0" disallow="bus tram rail_urban rail rail_electric rail_fast ship" speed="8.33" length="11.23" shape="814.07,618.39 805.11,625.15"/>
    </edge>
    <edge id=":47_1" function="internal">
        <lane id=":47_1_0" index="0" disallow="tram rail_urban rail rail_electric rail_fast ship" speed="7.40" length="11.76" shape="814.07,618.39 811.82,619.41 809.42,619.15 806.87,617.61 804.18,614.79"/>
    </edge>
    <edge id=":47_2" function="internal">
        <lane id=":47_2_0" index="0" disallow="tram rail_urban rail rail_electric rail_fast ship" speed="3.65" length="4.67" shape="814.07,618.39 812.63,618.48 811.83,618.08 811.67,617.20 812.14,615.84"/>
    </edge>
    <edge id=":47_3" function="internal">
        <lane id=":47_3_0" index="0" disallow="bus tram rail_urban rail rail_electric rail_fast ship" speed="6.44" length="9.03" shape="803.19,622.59 804.95,620.83 805.70,618.94 805.44,616.93 804.18,614.79"/>
    </edge>
    <edge id=":47_4" function="internal">
        <lane id=":47_4_0" index="0" disallow="bus tram rail_urban rail rail_electric rail_fast ship" speed="8.33" length="11.21" shape="803.19,622.59 812.14,615.84"/>
    </edge>
    <edge id=":47_5" function="internal">
        <lane id=":47_5_0" index="0" disallow="bus tram rail_urban rail rail_electric rail_fast ship" speed="3.65" length="4.67" shape="803.19,622.59 804.63,622.51 805.43,622.91 805.59,623.79 805.11,625.15"/>
    </edge>
    <edge id=":48_0" function="internal">
        <lane id=":48_0_0" index="0" disallow="tram rail_urban rail rail_electric rail_fast ship" speed="6.08" length="7.65" shape="920.12,531.73 921.11,533.57 921.28,535.29 920.63,536.90 919.16,538.39"/>
    </edge>
    <edge id=":48_1" function="internal">
        <lane id=":48_1_0" index="0" disallow="tram rail_urban rail rail_electric rail_fast ship" speed="3.65" length="4.67" shape="920.12,531.73 920.19,533.17 919.78,533.96 918.90,534.12 917.55,533.62"/>
    </edge>
    <edge id=":48_2" function="internal">
        <lane id=":48_2_0" index="0" disallow="tram rail_urban rail rail_electric rail_fast ship" speed="3.91" length="2.55" shape="917.23,535.84 917.72,535.35 917.93,534.81 917.88,534.24 917.55,533.62"/>
    </edge>
    <edge id=":48_3" function="internal">
        <lane id=":48_3_0" index="0" disallow="tram rail_urban rail rail_electric rail_fast ship" speed="3.65" length="4.67" shape="917.23,535.84 918.67,535.75 919.47,536.15 919.64,537.03 919.16,538.39"/>
    </edge>
    <edge id=":49_0" function="internal">
        <lane id=":49_0_0" index="0" disallow="tram rail_urban rail rail_electric rail_fast ship" speed="13.89" length="19.23" shape="1006.99,517.16 997.47,533.86"/>
    </edge>
    <edge id=":49_1" function="internal">
        <lane id=":49_1_0" index="0" disallow="tram rail_urban rail rail_electric rail_fast ship" speed="3.65" length="4.67" shape="1006.99,517.16 1005.71,517.81 1004.81,517.76 1004.31,517.02 1004.21,515.58"/>
    </edge>
    <edge id=":49_2" function="internal">
        <lane id=":49_2_0" index="0" disallow="tram rail_urban rail rail_electric rail_fast ship" speed="5.36" length="9.44" shape="998.68,514.39 999.71,517.37 1000.97,518.56 1002.47,517.96 1004.21,515.58"/>
    </edge>
    <edge id=":49_3" function="internal">
        <lane id=":49_3_0" index="0" disallow="tram rail_urban rail rail_electric rail_fast ship" speed="13.89" length="19.78" shape="998.68,514.39 999.33,518.88 999.44,524.33 998.88,529.68 997.47,533.86"/>
    </edge>
    <edge id=":50_0" function="internal">
        <lane id=":50_0_0" index="0" disallow="tram rail_urban rail rail_electric rail_fast ship" speed="5.94" length="9.09" shape="979.16,431.17 980.18,433.58 981.65,434.82 983.58,434.90 985.96,433.81"/>
    </edge>
    <edge id=":50_1" function="internal">
        <lane id=":50_1_0" index="0" disallow="tram rail_urban rail rail_electric rail_fast ship" speed="13.89" length="15.93" shape="979.16,431.17 982.81,446.67"/>
    </edge>
    <edge id=":50_2" function="internal">
        <lane id=":50_2_0" index="0" disallow="tram rail_urban rail rail_electric rail_fast ship" speed="9.09" length="14.02" shape="979.16,431.17 979.89,435.42 979.65,438.97 978.43,441.80 976.23,443.93"/>
    </edge>
    <edge id=":50_3" function="internal">
        <lane id=":50_3_0" index="0" disallow="tram rail_urban rail rail_electric rail_fast ship" speed="11.11" length="13.69" shape="974.47,441.25 985.96,433.81"/>
    </edge>
    <edge id=":50_4" function="internal">
        <lane id=":50_4_0" index="0" disallow="tram rail_urban rail rail_electric rail_fast ship" speed="6.73" length="12.58" shape="974.47,441.25 977.39,440.02 979.75,440.51 981.56,442.72 982.81,446.67"/>
    </edge>
    <edge id=":50_5" function="internal">
        <lane id=":50_5_0" index="0" disallow="tram rail_urban rail rail_electric rail_fast ship" speed="3.65" length="4.67" shape="974.47,441.25 975.91,441.26 976.69,441.71 976.79,442.60 976.23,443.93"/>
    </edge>
    <edge id=":51_0" function="internal">
        <lane id=":51_0_0" index="0" disallow="tram rail_urban rail rail_electric rail_fast ship" speed="6.50" length="9.14" shape="916.93,403.72 918.86,405.38 920.83,406.02 922.84,405.65 924.90,404.26"/>
    </edge>
    <edge id=":51_1" function="internal">
        <lane id=":51_1_0" index="0" disallow="tram rail_urban rail rail_electric rail_fast ship" speed="8.33" length="11.47" shape="917.98,413.22 919.30,410.33 920.73,408.26 922.51,406.42 924.90,404.26"/>
    </edge>
    <edge id=":52_0" function="internal">
        <lane id=":52_0_0" index="0" disallow="tram rail_urban rail rail_electric rail_fast ship" speed="6.87" length="9.02" shape="910.81,454.32 908.39,454.14 906.39,454.73 904.81,456.09 903.65,458.22"/>
    </edge>
    <edge id=":52_1" function="internal">
        <lane id=":52_1_0" index="0" disallow="tram rail_urban rail rail_electric rail_fast ship" speed="7.59" length="3.16" shape="910.81,454.32 908.04,453.15 907.94,453.02"/>
    </edge>
    <edge id=":52_2" function="internal">
        <lane id=":52_2_0" index="0" disallow="tram rail_urban rail rail_electric rail_fast ship" speed="3.65" length="1.44" shape="910.81,454.32 909.80,453.28"/>
    </edge>
    <edge id=":52_9" function="internal">
        <lane id=":52_9_0" index="0" disallow="tram rail_urban rail rail_electric rail_fast ship" speed="7.59" length="9.61" shape="907.94,453.02 906.34,451.05 905.72,448.02 906.17,444.07"/>
    </edge>
    <edge id=":52_10" function="internal">
        <lane id=":52_10_0" index="0" disallow="tram rail_urban rail rail_electric rail_fast ship" speed="3.65" length="3.23" shape="909.80,453.28 909.58,452.42 910.14,451.72 911.48,451.19"/>
    </edge>
    <edge id=":52_3" function="internal">
        <lane id=":52_3_0" index="0" disallow="tram rail_urban rail rail_electric rail_fast ship" speed="6.51" length="9.96" shape="898.34,447.34 901.29,448.05 903.57,447.74 905.20,446.41 906.17,444.07"/>
    </edge>
    <edge id=":52_4" function="internal">
        <lane id=":52_4_0" index="0" disallow="tram rail_urban rail rail_electric rail_fast ship" speed="11.11" length="13.70" shape="898.34,447.34 901.69,448.53 904.84,449.52 908.02,450.39 911.48,451.19"/>
    </edge>
    <edge id=":52_5" function="internal">
        <lane id=":52_5_0" index="0" disallow="tram rail_urban rail rail_electric rail_fast ship" speed="7.89" length="10.13" shape="898.34,447.34 901.77,449.17 903.80,451.59 904.43,454.61"/>
    </edge>
    <edge id=":52_11" function="internal">
        <lane id=":52_11_0" index="0" disallow="tram rail_urban rail rail_electric rail_fast ship" speed="7.89" length="3.70" shape="904.43,454.61 903.65,458.22"/>
    </edge>
    <edge id=":52_6" function="internal">
        <lane id=":52_6_0" index="0" disallow="tram rail_urban rail rail_electric rail_fast ship" speed="8.33" length="14.16" shape="900.66,457.09 902.11,453.77 903.67,450.66 905.09,447.51 906.17,444.07"/>
    </edge>
    <edge id=":52_7" function="internal">
        <lane id=":52_7_0" index="0" disallow="tram rail_urban rail rail_electric rail_fast ship" speed="8.31" length="13.64" shape="900.66,457.09 902.41,453.87 904.80,451.81 907.82,450.92 911.48,451.19"/>
    </edge>
    <edge id=":52_8" function="internal">
        <lane id=":52_8_0" index="0" disallow="tram rail_urban rail rail_electric rail_fast ship" speed="3.65" length="4.67" shape="900.66,457.09 901.83,456.25 902.72,456.16 903.33,456.82 903.65,458.22"/>
    </edge>
    <edge id=":53_0" function="internal">
        <lane id=":53_0_0" index="0" disallow="tram rail_urban rail rail_electric rail_fast ship" speed="6.51" length="9.01" shape="764.84,391.65 764.29,394.05 764.64,396.06 765.89,397.67 768.04,398.88"/>
    </edge>
    <edge id=":53_1" function="internal">
        <lane id=":53_1_0" index="0" disallow="tram rail_urban rail rail_electric rail_fast ship" speed="12.50" length="11.21" shape="757.54,394.96 768.04,398.88"/>
    </edge>
    <edge id=":53_2" function="internal">
        <lane id=":53_2_0" index="0" disallow="tram rail_urban rail rail_electric rail_fast ship" speed="6.44" length="9.00" shape="760.90,402.12 762.06,399.94 763.64,398.67 765.63,398.32 768.04,398.88"/>
    </edge>
    <edge id=":54_0" function="internal">
        <lane id=":54_0_0" index="0" disallow="tram rail_urban rail rail_electric rail_fast ship" speed="8.33" length="0.63" shape="728.85,512.77 728.77,512.60 728.74,512.48 728.72,512.35 728.71,512.16"/>
    </edge>
    <edge id=":55_0" function="internal">
        <lane id=":55_0_0" index="0" disallow="tram rail_urban rail rail_electric rail_fast ship" speed="6.35" length="4.79" shape="888.84,494.59 888.22,493.52 887.91,492.40 887.91,491.25 888.22,490.05"/>
    </edge>
    <edge id=":55_1" function="internal">
        <lane id=":55_1_0" index="0" disallow="tram rail_urban rail rail_electric rail_fast ship" speed="3.65" length="4.67" shape="888.84,494.59 888.77,493.15 889.18,492.35 890.06,492.20 891.42,492.69"/>
    </edge>
    <edge id=":55_2" function="internal">
        <lane id=":55_2_0" index="0" disallow="tram rail_urban rail rail_electric rail_fast ship" speed="4.05" length="1.60" shape="891.21,491.18 891.11,491.58 891.11,491.96 891.21,492.34 891.42,492.69"/>
    </edge>
    <edge id=":55_3" function="internal">
        <lane id=":55_3_0" index="0" disallow="tram rail_urban rail rail_electric rail_fast ship" speed="3.65" length="4.67" shape="891.21,491.18 890.04,492.02 889.15,492.11 888.54,491.45 888.22,490.05"/>
    </edge>
    <edge id=":6_0" function="internal">
        <lane id=":6_0_0" index="0" disallow="tram rail_urban rail rail_electric rail_fast ship" speed="6.29" length="9.04" shape="184.67,497.82 184.82,500.33 185.75,502.10 187.47,503.15 189.96,503.45"/>
    </edge>
    <edge id=":6_1" function="internal">
        <lane id=":6_1_0" index="0" disallow="tram rail_urban rail rail_electric rail_fast ship" speed="27.78" length="11.24" shape="184.67,497.82 183.84,509.03"/>
    </edge>
    <edge id=":60_0" function="internal">
        <lane id=":60_0_0" index="0" disallow="tram rail_urban rail rail_electric rail_fast ship" speed="13.89" length="0.30" shape="471.09,677.38 471.37,677.49"/>
    </edge>
    <edge id=":63_0" function="internal">
        <lane id=":63_0_0" index="0" disallow="tram rail_urban rail rail_electric rail_fast ship" speed="13.89" length="0.28" shape="400.12,650.01 400.38,650.11"/>
    </edge>
    <edge id=":64_0" function="internal">
        <lane id=":64_0_0" index="0" disallow="tram rail_urban rail rail_electric rail_fast ship" speed="22.22" length="0.29" shape="238.28,769.19 238.38,768.92"/>
    </edge>
    <edge id=":65_0" function="internal">
        <lane id=":65_0_0" index="0" disallow="tram rail_urban rail rail_electric rail_fast ship" speed="27.78" length="0.30" shape="178.52,584.44 178.50,584.74"/>
    </edge>
    <edge id=":66_0" function="internal">
        <lane id=":66_0_0" index="0" disallow="tram rail_urban rail rail_electric rail_fast ship" speed="13.89" length="0.10" shape="504.80,300.81 504.80,300.81"/>
    </edge>
    <edge id=":67_0" function="internal">