<?xml version="1.0" encoding="UTF-8"?>

<!-- generated on 2022-09-20 11:50:29 by Eclipse SUMO netconvert Version 1.9.2
<configuration xmlns:xsi="http://www.w3.org/2001/XMLSchema-instance" xsi:noNamespaceSchemaLocation="http://sumo.dlr.de/xsd/netconvertConfiguration.xsd">

    <input>
        <sumo-net-file value="\\wsl$\Ubuntu\home\svadlmat\UTC\utc/data/maps/sumo/Dejvice.net.xml"/>
    </input>

    <output>
        <output-file value="\\wsl$\Ubuntu\home\svadlmat\UTC\utc/data/maps/sumo/dejvice_test_similarity_subgraph.net.xml"/>
    </output>

    <processing>
        <geometry.min-radius.fix.railways value="false"/>
        <geometry.max-grade.fix value="false"/>
        <offset.disable-normalization value="true"/>
        <lefthand value="false"/>
    </processing>

    <edge_removal>
        <keep-edges.explicit value="183,140,143,4,125,120,26,37,5,6,171,116,127,29,172,0,77,114,64,38,128,11,129,119,162,153,31,145,102,138,23,152,100,149,13,90,19,101,111,57,139,154,135,63,91,131,27,99,52,15,163,18,78,44,124,137,112,136,182,36,170,83,147,173,25,106,148,164,9,3,130,115,96,75,55,134,28,141,12,157,20,74,14,24,50,51,117,54,175,167,8,118,30,22,43,32,41,2,97,7,79,103,160,21"/>
    </edge_removal>

    <junctions>
        <no-turnarounds value="true"/>
        <junctions.corner-detail value="5"/>
        <junctions.limit-turn-speed value="5.5"/>
        <rectangular-lane-cut value="false"/>
    </junctions>

    <pedestrian>
        <walkingareas value="false"/>
    </pedestrian>

    <report>
        <aggregate-warnings value="5"/>
    </report>

</configuration>
-->

<net version="1.9" junctionCornerDetail="5" limitTurnSpeed="5.50" xmlns:xsi="http://www.w3.org/2001/XMLSchema-instance" xsi:noNamespaceSchemaLocation="http://sumo.dlr.de/xsd/net_file.xsd">

    <location netOffset="-456549.58,-5550032.66" convBoundary="46.88,0.00,1099.45,927.42" origBoundary="14.392383,50.101022,14.411015,50.110847" projParameter="+proj=utm +zone=33 +ellps=WGS84 +datum=WGS84 +units=m +no_defs"/>

    <type id="highway.bridleway" priority="1" numLanes="1" speed="2.78" allow="pedestrian" oneway="1" width="2.00"/>
    <type id="highway.bus_guideway" priority="1" numLanes="1" speed="27.78" allow="bus" oneway="1"/>
    <type id="highway.cycleway" priority="1" numLanes="1" speed="8.33" allow="bicycle" oneway="0" width="1.00"/>
    <type id="highway.footway" priority="1" numLanes="1" speed="2.78" allow="pedestrian" oneway="1" width="2.00"/>
    <type id="highway.ford" priority="1" numLanes="1" speed="2.78" allow="army" oneway="0"/>
    <type id="highway.living_street" priority="2" numLanes="1" speed="2.78" disallow="tram rail_urban rail rail_electric rail_fast ship" oneway="0"/>
    <type id="highway.motorway" priority="14" numLanes="2" speed="39.44" allow="private emergency authority army vip passenger hov taxi bus coach delivery truck trailer motorcycle evehicle custom1 custom2" oneway="1"/>
    <type id="highway.motorway_link" priority="9" numLanes="1" speed="22.22" allow="private emergency authority army vip passenger hov taxi bus coach delivery truck trailer motorcycle evehicle custom1 custom2" oneway="1"/>
    <type id="highway.path" priority="1" numLanes="1" speed="2.78" allow="pedestrian bicycle" oneway="0" width="2.00"/>
    <type id="highway.pedestrian" priority="1" numLanes="1" speed="2.78" allow="pedestrian" oneway="1" width="2.00"/>
    <type id="highway.primary" priority="12" numLanes="2" speed="27.78" disallow="tram rail_urban rail rail_electric rail_fast ship" oneway="0"/>
    <type id="highway.primary_link" priority="7" numLanes="1" speed="22.22" disallow="tram rail_urban rail rail_electric rail_fast ship" oneway="0"/>
    <type id="highway.raceway" priority="15" numLanes="2" speed="83.33" allow="vip" oneway="0"/>
    <type id="highway.residential" priority="3" numLanes="1" speed="13.89" disallow="tram rail_urban rail rail_electric rail_fast ship" oneway="0"/>
    <type id="highway.secondary" priority="11" numLanes="1" speed="27.78" disallow="tram rail_urban rail rail_electric rail_fast ship" oneway="0"/>
    <type id="highway.secondary_link" priority="6" numLanes="1" speed="22.22" disallow="tram rail_urban rail rail_electric rail_fast ship" oneway="0"/>
    <type id="highway.service" priority="1" numLanes="1" speed="5.56" allow="pedestrian delivery bicycle" oneway="0"/>
    <type id="highway.stairs" priority="1" numLanes="1" speed="1.39" allow="pedestrian" oneway="1" width="2.00"/>
    <type id="highway.step" priority="1" numLanes="1" speed="1.39" allow="pedestrian" oneway="1" width="2.00"/>
    <type id="highway.steps" priority="1" numLanes="1" speed="1.39" allow="pedestrian" oneway="1" width="2.00"/>
    <type id="highway.tertiary" priority="10" numLanes="1" speed="22.22" disallow="tram rail_urban rail rail_electric rail_fast ship" oneway="0"/>
    <type id="highway.tertiary_link" priority="5" numLanes="1" speed="22.22" disallow="tram rail_urban rail rail_electric rail_fast ship" oneway="0"/>
    <type id="highway.track" priority="1" numLanes="1" speed="5.56" allow="pedestrian motorcycle moped bicycle" oneway="0"/>
    <type id="highway.trunk" priority="13" numLanes="2" speed="27.78" disallow="pedestrian bicycle tram rail_urban rail rail_electric rail_fast ship" oneway="0"/>
    <type id="highway.trunk_link" priority="8" numLanes="1" speed="22.22" disallow="pedestrian bicycle tram rail_urban rail rail_electric rail_fast ship" oneway="0"/>
    <type id="highway.unclassified" priority="4" numLanes="1" speed="13.89" disallow="tram rail_urban rail rail_electric rail_fast ship" oneway="0"/>
    <type id="highway.unsurfaced" priority="1" numLanes="1" speed="8.33" disallow="tram rail_urban rail rail_electric rail_fast ship" oneway="0"/>
    <type id="railway.highspeed" priority="21" numLanes="1" speed="69.44" allow="rail_fast" oneway="1"/>
    <type id="railway.light_rail" priority="19" numLanes="1" speed="27.78" allow="rail_urban" oneway="1"/>
    <type id="railway.preserved" priority="16" numLanes="1" speed="27.78" allow="rail" oneway="1"/>
    <type id="railway.rail" priority="20" numLanes="1" speed="44.44" allow="rail" oneway="1"/>
    <type id="railway.subway" priority="18" numLanes="1" speed="27.78" allow="rail_urban" oneway="1"/>
    <type id="railway.tram" priority="17" numLanes="1" speed="13.89" allow="tram" oneway="1"/>

    <edge id=":1_0" function="internal">
        <lane id=":1_0_0" index="0" disallow="tram rail_urban rail rail_electric rail_fast ship" speed="27.78" length="8.21" shape="176.61,611.16 176.69,613.57 177.12,615.21 177.55,616.85 177.61,619.26"/>
        <lane id=":1_0_1" index="1" disallow="tram rail_urban rail rail_electric rail_fast ship" speed="27.78" length="8.21" shape="176.61,611.16 176.19,613.53 175.53,615.09 174.86,616.64 174.42,619.01"/>
    </edge>
    <edge id=":14_0" function="internal">
        <lane id=":14_0_0" index="0" disallow="tram rail_urban rail rail_electric rail_fast ship" speed="3.91" length="2.42" shape="207.21,228.04 206.56,228.12 206.07,228.39 205.75,228.84 205.59,229.48"/>
    </edge>
    <edge id=":15_0" function="internal">
        <lane id=":15_0_0" index="0" disallow="tram rail_urban rail rail_electric rail_fast ship" speed="3.65" length="4.67" shape="868.49,0.37 868.99,-0.98 869.68,-1.56 870.55,-1.35 871.61,-0.37"/>
    </edge>
    <edge id=":2_0" function="internal">
        <lane id=":2_0_0" index="0" disallow="tram rail_urban rail rail_electric rail_fast ship" speed="27.78" length="8.21" shape="166.74,742.87 166.80,745.28 167.23,746.92 167.66,748.56 167.74,750.96"/>
        <lane id=":2_0_1" index="1" disallow="tram rail_urban rail rail_electric rail_fast ship" speed="27.78" length="8.21" shape="166.74,742.87 166.30,745.24 165.63,746.80 164.97,748.36 164.55,750.73"/>
    </edge>
    <edge id=":22_0" function="internal">
        <lane id=":22_0_0" index="0" disallow="tram rail_urban rail rail_electric rail_fast ship" speed="8.33" length="2.88" shape="309.00,235.05 308.18,234.82 307.62,234.63 307.05,234.49 306.21,234.38"/>
    </edge>
    <edge id=":23_0" function="internal">
        <lane id=":23_0_0" index="0" disallow="tram rail_urban rail rail_electric rail_fast ship" speed="6.47" length="9.08" shape="528.14,312.87 525.69,312.29 523.67,312.63 522.07,313.90 520.90,316.08"/>
    </edge>
    <edge id=":23_1" function="internal">
        <lane id=":23_1_0" index="0" disallow="tram rail_urban rail rail_electric rail_fast ship" speed="13.89" length="11.22" shape="528.14,312.87 517.65,308.87"/>
    </edge>
    <edge id=":23_2" function="internal">
        <lane id=":23_2_0" index="0" disallow="tram rail_urban rail rail_electric rail_fast ship" speed="3.65" length="2.34" shape="528.14,312.87 527.31,311.69 527.23,310.80"/>
    </edge>
    <edge id=":23_6" function="internal">
        <lane id=":23_6_0" index="0" disallow="tram rail_urban rail rail_electric rail_fast ship" speed="3.65" length="2.34" shape="527.23,310.80 527.89,310.20 529.30,309.89"/>
    </edge>
    <edge id=":23_3" function="internal">
        <lane id=":23_3_0" index="0" disallow="tram rail_urban rail rail_electric rail_fast ship" speed="13.89" length="11.27" shape="518.76,305.88 529.30,309.89"/>
    </edge>
    <edge id=":23_4" function="internal">
        <lane id=":23_4_0" index="0" disallow="tram rail_urban rail rail_electric rail_fast ship" speed="7.33" length="4.03" shape="518.76,305.88 520.83,307.23 521.51,308.63"/>
    </edge>
    <edge id=":23_5" function="internal">
        <lane id=":23_5_0" index="0" disallow="tram rail_urban rail rail_electric rail_fast ship" speed="3.65" length="2.34" shape="518.76,305.88 519.61,307.04 519.71,307.93"/>
    </edge>
    <edge id=":23_7" function="internal">
        <lane id=":23_7_0" index="0" disallow="tram rail_urban rail rail_electric rail_fast ship" speed="7.33" length="7.66" shape="521.51,308.63 521.87,309.38 521.90,312.33 520.90,316.08"/>
    </edge>
    <edge id=":23_8" function="internal">
        <lane id=":23_8_0" index="0" disallow="tram rail_urban rail rail_electric rail_fast ship" speed="3.65" length="2.34" shape="519.71,307.93 519.05,308.54 517.65,308.87"/>
    </edge>
    <edge id=":24_0" function="internal">
        <lane id=":24_0_0" index="0" disallow="tram rail_urban rail rail_electric rail_fast ship" speed="12.50" length="0.29" shape="643.32,355.46 643.05,355.36"/>
    </edge>
    <edge id=":24_1" function="internal">
        <lane id=":24_1_0" index="0" disallow="tram rail_urban rail rail_electric rail_fast ship" speed="3.65" length="2.34" shape="643.32,355.46 642.47,354.29 642.38,353.40"/>
    </edge>
    <edge id=":24_4" function="internal">
        <lane id=":24_4_0" index="0" disallow="tram rail_urban rail rail_electric rail_fast ship" speed="3.65" length="2.34" shape="642.38,353.40 643.04,352.79 644.44,352.47"/>
    </edge>
    <edge id=":24_2" function="internal">
        <lane id=":24_2_0" index="0" disallow="tram rail_urban rail rail_electric rail_fast ship" speed="13.89" length="0.31" shape="644.15,352.36 644.44,352.47"/>
    </edge>
    <edge id=":24_3" function="internal">
        <lane id=":24_3_0" index="0" disallow="tram rail_urban rail rail_electric rail_fast ship" speed="3.65" length="2.34" shape="644.15,352.36 645.00,353.52 645.10,354.41"/>
    </edge>
    <edge id=":24_5" function="internal">
        <lane id=":24_5_0" index="0" disallow="tram rail_urban rail rail_electric rail_fast ship" speed="3.65" length="2.34" shape="645.10,354.41 644.45,355.02 643.05,355.36"/>
    </edge>
    <edge id=":27_0" function="internal">
        <lane id=":27_0_0" index="0" disallow="tram rail_urban rail rail_electric rail_fast ship" speed="6.61" length="8.74" shape="931.82,256.09 930.96,253.95 929.58,252.54 927.67,251.86 925.24,251.90"/>
    </edge>
    <edge id=":27_1" function="internal">
        <lane id=":27_1_0" index="0" disallow="tram rail_urban rail rail_electric rail_fast ship" speed="22.22" length="10.59" shape="931.82,256.09 929.26,245.81"/>
    </edge>
    <edge id=":27_2" function="internal">
        <lane id=":27_2_0" index="0" disallow="tram rail_urban rail rail_electric rail_fast ship" speed="3.65" length="2.34" shape="931.82,256.09 932.32,254.73 933.01,254.16"/>
    </edge>
    <edge id=":27_6" function="internal">
        <lane id=":27_6_0" index="0" disallow="tram rail_urban rail rail_electric rail_fast ship" speed="3.65" length="2.34" shape="933.01,254.16 933.88,254.36 934.94,255.34"/>
    </edge>
    <edge id=":27_3" function="internal">
        <lane id=":27_3_0" index="0" disallow="tram rail_urban rail rail_electric rail_fast ship" speed="22.22" length="10.65" shape="932.36,245.01 934.94,255.34"/>
    </edge>
    <edge id=":27_4" function="internal">
        <lane id=":27_4_0" index="0" disallow="tram rail_urban rail rail_electric rail_fast ship" speed="6.99" length="4.08" shape="932.36,245.01 932.45,247.54 931.67,248.88"/>
    </edge>
    <edge id=":27_5" function="internal">
        <lane id=":27_5_0" index="0" disallow="tram rail_urban rail rail_electric rail_fast ship" speed="3.65" length="2.34" shape="932.36,245.01 931.88,246.37 931.21,246.96"/>
    </edge>
    <edge id=":27_7" function="internal">
        <lane id=":27_7_0" index="0" disallow="tram rail_urban rail rail_electric rail_fast ship" speed="6.99" length="7.33" shape="931.67,248.88 931.30,249.53 928.89,250.98 925.24,251.90"/>
    </edge>
    <edge id=":27_8" function="internal">
        <lane id=":27_8_0" index="0" disallow="tram rail_urban rail rail_electric rail_fast ship" speed="3.65" length="2.34" shape="931.21,246.96 930.33,246.77 929.26,245.81"/>
    </edge>
    <edge id=":31_0" function="internal">
        <lane id=":31_0_0" index="0" disallow="tram rail_urban rail rail_electric rail_fast ship" speed="6.45" length="9.03" shape="196.63,361.35 196.70,363.84 197.55,365.68 199.18,366.88 201.60,367.45"/>
    </edge>
    <edge id=":31_1" function="internal">
        <lane id=":31_1_0" index="0" disallow="tram rail_urban rail rail_electric rail_fast ship" speed="27.78" length="11.24" shape="196.63,361.35 195.47,372.53"/>
    </edge>
    <edge id=":32_0" function="internal">
        <lane id=":32_0_0" index="0" disallow="tram rail_urban rail rail_electric rail_fast ship" speed="11.11" length="0.10" shape="241.17,369.92 241.17,369.92"/>
    </edge>
    <edge id=":33_0" function="internal">
        <lane id=":33_0_0" index="0" disallow="tram rail_urban rail rail_electric rail_fast ship" speed="8.33" length="0.24" shape="284.72,376.15 284.79,376.16 284.84,376.17 284.89,376.18 284.96,376.20"/>
    </edge>
    <edge id=":34_0" function="internal">
        <lane id=":34_0_0" index="0" disallow="tram rail_urban rail rail_electric rail_fast ship" speed="8.33" length="0.10" shape="329.49,388.91 329.49,388.91"/>
    </edge>
    <edge id=":35_0" function="internal">
        <lane id=":35_0_0" index="0" disallow="tram rail_urban rail rail_electric rail_fast ship" speed="8.33" length="0.10" shape="255.26,514.13 255.26,514.13"/>
    </edge>
    <edge id=":36_0" function="internal">
        <lane id=":36_0_0" index="0" disallow="tram rail_urban rail rail_electric rail_fast ship" speed="6.99" length="9.62" shape="334.09,538.30 331.36,537.96 329.14,538.45 327.42,539.75 326.20,541.87"/>
    </edge>
    <edge id=":36_1" function="internal">
        <lane id=":36_1_0" index="0" disallow="tram rail_urban rail rail_electric rail_fast ship" speed="3.65" length="4.67" shape="334.09,538.30 333.12,537.23 332.93,536.36 333.51,535.68 334.87,535.19"/>
    </edge>
    <edge id=":36_2" function="internal">
        <lane id=":36_2_0" index="0" disallow="tram rail_urban rail rail_electric rail_fast ship" speed="6.28" length="9.06" shape="331.25,528.36 330.72,530.82 331.14,532.78 332.53,534.24 334.87,535.19"/>
    </edge>
    <edge id=":36_3" function="internal">
        <lane id=":36_3_0" index="0" disallow="tram rail_urban rail rail_electric rail_fast ship" speed="18.05" length="14.42" shape="331.25,528.36 326.20,541.87"/>
    </edge>
    <edge id=":36_4" function="internal">
        <lane id=":36_4_0" index="0" disallow="tram rail_urban rail rail_electric rail_fast ship" speed="8.33" length="11.82" shape="323.16,533.79 326.34,534.41 329.00,534.54 331.67,534.65 334.87,535.19"/>
    </edge>
    <edge id=":36_5" function="internal">
        <lane id=":36_5_0" index="0" disallow="tram rail_urban rail rail_electric rail_fast ship" speed="6.62" length="10.03" shape="323.16,533.79 325.43,534.88 326.69,536.59 326.95,538.92 326.20,541.87"/>
    </edge>
    <edge id=":37_0" function="internal">
        <lane id=":37_0_0" index="0" disallow="tram rail_urban rail rail_electric rail_fast ship" speed="22.22" length="11.13" shape="378.24,401.91 374.41,412.37"/>
    </edge>
    <edge id=":37_1" function="internal">
        <lane id=":37_1_0" index="0" disallow="tram rail_urban rail rail_electric rail_fast ship" speed="6.53" length="9.01" shape="371.17,405.13 373.33,406.36 374.59,407.98 374.95,409.98 374.41,412.37"/>
    </edge>
    <edge id=":38_0" function="internal">
        <lane id=":38_0_0" index="0" disallow="tram rail_urban rail rail_electric rail_fast ship" speed="8.33" length="0.30" shape="494.38,388.80 494.28,389.08"/>
    </edge>
    <edge id=":4_0" function="internal">
        <lane id=":4_0_0" index="0" disallow="tram rail_urban rail rail_electric rail_fast ship" speed="18.05" length="8.50" shape="961.09,377.10 958.90,368.88"/>
    </edge>
    <edge id=":4_1" function="internal">
        <lane id=":4_1_0" index="0" disallow="tram rail_urban rail rail_electric rail_fast ship" speed="3.65" length="2.34" shape="961.09,377.10 961.54,375.73 962.21,375.13"/>
    </edge>
    <edge id=":4_6" function="internal">
        <lane id=":4_6_0" index="0" disallow="tram rail_urban rail rail_electric rail_fast ship" speed="3.65" length="2.34" shape="962.21,375.13 963.09,375.31 964.17,376.25"/>
    </edge>
    <edge id=":4_2" function="internal">
        <lane id=":4_2_0" index="0" disallow="tram rail_urban rail rail_electric rail_fast ship" speed="18.05" length="8.40" shape="962.02,368.14 964.17,376.25"/>
    </edge>
    <edge id=":4_3" function="internal">
        <lane id=":4_3_0" index="0" disallow="tram rail_urban rail rail_electric rail_fast ship" speed="3.65" length="2.34" shape="962.02,368.14 961.52,369.49 960.83,370.07"/>
    </edge>
    <edge id=":4_7" function="internal">
        <lane id=":4_7_0" index="0" disallow="tram rail_urban rail rail_electric rail_fast ship" speed="3.65" length="2.34" shape="960.83,370.07 959.96,369.86 958.90,368.88"/>
    </edge>
    <edge id=":4_4" function="internal">
        <lane id=":4_4_0" index="0" disallow="tram rail_urban rail rail_electric rail_fast ship" speed="9.10" length="8.01" shape="956.78,376.40 958.00,374.31 958.76,372.36 959.06,370.55 958.90,368.88"/>
    </edge>
    <edge id=":4_5" function="internal">
        <lane id=":4_5_0" index="0" disallow="tram rail_urban rail rail_electric rail_fast ship" speed="5.90" length="11.19" shape="956.78,376.40 959.22,373.43 961.27,372.41 962.92,373.35 964.17,376.25"/>
    </edge>
    <edge id=":40_0" function="internal">
        <lane id=":40_0_0" index="0" disallow="tram rail_urban rail rail_electric rail_fast ship" speed="3.91" length="2.45" shape="465.02,542.83 465.58,543.19 465.91,543.64 466.00,544.19 465.86,544.84"/>
    </edge>
    <edge id=":41_0" function="internal">
        <lane id=":41_0_0" index="0" disallow="tram rail_urban rail rail_electric rail_fast ship" speed="7.05" length="10.08" shape="444.47,527.87 444.11,530.17 444.77,532.23 446.45,534.05 449.14,535.62"/>
    </edge>
    <edge id=":41_1" function="internal">
        <lane id=":41_1_0" index="0" disallow="tram rail_urban rail rail_electric rail_fast ship" speed="8.33" length="10.86" shape="444.47,527.87 443.67,530.85 443.42,533.18 443.18,535.51 442.39,538.50"/>
    </edge>
    <edge id=":41_2" function="internal">
        <lane id=":41_2_0" index="0" disallow="tram rail_urban rail rail_electric rail_fast ship" speed="7.02" length="11.39" shape="439.38,537.43 440.70,535.30 442.76,534.29 445.58,534.40 449.14,535.62"/>
    </edge>
    <edge id=":41_3" function="internal">
        <lane id=":41_3_0" index="0" disallow="tram rail_urban rail rail_electric rail_fast ship" speed="3.65" length="4.67" shape="439.38,537.43 440.53,536.57 441.42,536.46 442.04,537.10 442.39,538.50"/>
    </edge>
    <edge id=":42_0" function="internal">
        <lane id=":42_0_0" index="0" disallow="tram rail_urban rail rail_electric rail_fast ship" speed="6.32" length="9.13" shape="439.71,563.36 437.31,562.59 435.31,562.84 433.71,564.09 432.50,566.35"/>
    </edge>
    <edge id=":42_1" function="internal">
        <lane id=":42_1_0" index="0" disallow="tram rail_urban rail rail_electric rail_fast ship" speed="8.33" length="14.76" shape="439.71,563.36 436.33,561.83 432.90,560.52 429.39,559.43 425.79,558.54"/>
    </edge>
    <edge id=":42_2" function="internal">
        <lane id=":42_2_0" index="0" disallow="tram rail_urban rail rail_electric rail_fast ship" speed="8.33" length="14.35" shape="439.71,563.36 436.35,561.14 434.34,558.45 433.69,555.27 434.39,551.61"/>
    </edge>
    <edge id=":42_3" function="internal">
        <lane id=":42_3_0" index="0" disallow="tram rail_urban rail rail_electric rail_fast ship" speed="3.65" length="4.67" shape="439.71,563.36 438.98,562.11 438.97,561.22 439.68,560.67 441.11,560.48"/>
    </edge>
    <edge id=":42_4" function="internal">
        <lane id=":42_4_0" index="0" disallow="tram rail_urban rail rail_electric rail_fast ship" speed="6.98" length="9.62" shape="437.40,552.67 436.96,555.08 437.43,557.18 438.81,558.98 441.11,560.48"/>
    </edge>
    <edge id=":42_5" function="internal">
        <lane id=":42_5_0" index="0" disallow="tram rail_urban rail rail_electric rail_fast ship" speed="8.33" length="14.53" shape="437.40,552.67 432.50,566.35"/>
    </edge>
    <edge id=":42_6" function="internal">
        <lane id=":42_6_0" index="0" disallow="tram rail_urban rail rail_electric rail_fast ship" speed="8.33" length="14.46" shape="437.40,552.67 435.65,555.96 433.13,558.03 429.84,558.90 425.79,558.54"/>
    </edge>
    <edge id=":42_7" function="internal">
        <lane id=":42_7_0" index="0" disallow="tram rail_urban rail rail_electric rail_fast ship" speed="3.65" length="4.67" shape="437.40,552.67 436.25,553.54 435.36,553.65 434.74,553.01 434.39,551.61"/>
    </edge>
    <edge id=":42_8" function="internal">
        <lane id=":42_8_0" index="0" disallow="tram rail_urban rail rail_electric rail_fast ship" speed="7.05" length="9.76" shape="426.47,555.42 429.25,555.67 431.50,555.13 433.21,553.77 434.39,551.61"/>
    </edge>
    <edge id=":42_9" function="internal">
        <lane id=":42_9_0" index="0" disallow="tram rail_urban rail rail_electric rail_fast ship" speed="8.33" length="15.53" shape="426.47,555.42 430.18,556.34 433.94,557.52 437.62,558.91 441.11,560.48"/>
    </edge>
    <edge id=":42_10" function="internal">
        <lane id=":42_10_0" index="0" disallow="tram rail_urban rail rail_electric rail_fast ship" speed="7.78" length="14.74" shape="426.47,555.42 430.33,556.85 432.62,559.15 433.35,562.32 432.50,566.35"/>
    </edge>
    <edge id=":42_11" function="internal">
        <lane id=":42_11_0" index="0" disallow="tram rail_urban rail rail_electric rail_fast ship" speed="3.65" length="4.67" shape="426.47,555.42 427.47,556.45 427.69,557.32 427.13,558.02 425.79,558.54"/>
    </edge>
    <edge id=":42_12" function="internal">
        <lane id=":42_12_0" index="0" disallow="tram rail_urban rail rail_electric rail_fast ship" speed="6.23" length="9.05" shape="429.50,565.26 430.01,562.78 429.57,560.84 428.16,559.43 425.79,558.54"/>
    </edge>
    <edge id=":42_13" function="internal">
        <lane id=":42_13_0" index="0" disallow="tram rail_urban rail rail_electric rail_fast ship" speed="8.33" length="14.50" shape="429.50,565.26 434.39,551.61"/>
    </edge>
    <edge id=":42_14" function="internal">
        <lane id=":42_14_0" index="0" disallow="tram rail_urban rail rail_electric rail_fast ship" speed="7.85" length="14.69" shape="429.50,565.26 431.44,561.63 434.02,559.63 437.24,559.24 441.11,560.48"/>
    </edge>
    <edge id=":42_15" function="internal">
        <lane id=":42_15_0" index="0" disallow="tram rail_urban rail rail_electric rail_fast ship" speed="3.65" length="4.67" shape="429.50,565.26 430.66,564.40 431.55,564.30 432.16,564.95 432.50,566.35"/>
    </edge>
    <edge id=":43_0" function="internal">
        <lane id=":43_0_0" index="0" disallow="tram rail_urban rail rail_electric rail_fast ship" speed="8.33" length="10.08" shape="458.60,564.53 457.80,567.40 457.65,569.96 458.14,572.21 459.27,574.14"/>
    </edge>
    <edge id=":43_1" function="internal">
        <lane id=":43_1_0" index="0" disallow="tram rail_urban rail rail_electric rail_fast ship" speed="6.36" length="9.26" shape="458.60,564.53 457.25,567.40 455.72,569.17 454.02,569.85 452.14,569.43"/>
    </edge>
    <edge id=":43_2" function="internal">
        <lane id=":43_2_0" index="0" disallow="tram rail_urban rail rail_electric rail_fast ship" speed="8.33" length="9.73" shape="453.55,566.56 455.82,568.10 456.88,569.75 457.71,571.70 459.27,574.14"/>
    </edge>
    <edge id=":43_3" function="internal">
        <lane id=":43_3_0" index="0" disallow="tram rail_urban rail rail_electric rail_fast ship" speed="3.65" length="4.67" shape="453.55,566.56 454.28,567.80 454.28,568.70 453.57,569.24 452.14,569.43"/>
    </edge>
    <edge id=":44_0" function="internal">
        <lane id=":44_0_0" index="0" disallow="tram rail_urban rail rail_electric rail_fast ship" speed="6.24" length="11.01" shape="653.69,712.68 650.30,710.98 647.78,710.69 646.11,711.82 645.29,714.36"/>
    </edge>
    <edge id=":44_1" function="internal">
        <lane id=":44_1_0" index="0" disallow="tram rail_urban rail rail_electric rail_fast ship" speed="3.65" length="2.23" shape="653.69,712.68 653.10,711.36 653.18,710.58"/>
    </edge>
    <edge id=":44_4" function="internal">
        <lane id=":44_4_0" index="0" disallow="tram rail_urban rail rail_electric rail_fast ship" speed="3.65" length="2.44" shape="653.18,710.58 653.19,710.47 653.95,710.01 655.39,709.97"/>
    </edge>
    <edge id=":44_2" function="internal">
        <lane id=":44_2_0" index="0" disallow="tram rail_urban rail rail_electric rail_fast ship" speed="11.11" length="15.29" shape="641.39,703.89 644.96,705.21 648.56,706.59 652.08,708.14 655.39,709.97"/>
    </edge>
    <edge id=":44_3" function="internal">
        <lane id=":44_3_0" index="0" disallow="tram rail_urban rail rail_electric rail_fast ship" speed="8.15" length="8.04" shape="641.39,703.89 643.48,705.24 644.83,707.43 645.41,710.36"/>
    </edge>
    <edge id=":44_5" function="internal">
        <lane id=":44_5_0" index="0" disallow="tram rail_urban rail rail_electric rail_fast ship" speed="8.15" length="4.00" shape="645.41,710.36 645.43,710.47 645.29,714.36"/>
    </edge>
    <edge id=":45_0" function="internal">
        <lane id=":45_0_0" index="0" disallow="tram rail_urban rail rail_electric rail_fast ship" speed="7.41" length="11.19" shape="652.01,748.79 649.21,748.08 646.73,748.47 644.57,749.95 642.73,752.53"/>
    </edge>
    <edge id=":45_1" function="internal">
        <lane id=":45_1_0" index="0" disallow="tram rail_urban rail rail_electric rail_fast ship" speed="13.89" length="12.36" shape="652.01,748.79 648.86,747.72 646.07,747.14 643.27,746.57 640.10,745.55"/>
    </edge>
    <edge id=":45_2" function="internal">
        <lane id=":45_2_0" index="0" disallow="tram rail_urban rail rail_electric rail_fast ship" speed="13.89" length="13.46" shape="651.13,742.13 648.52,744.48 646.37,746.87 644.50,749.49 642.73,752.53"/>
    </edge>
    <edge id=":45_3" function="internal">
        <lane id=":45_3_0" index="0" disallow="tram rail_urban rail rail_electric rail_fast ship" speed="9.30" length="6.44" shape="651.13,742.13 648.04,744.32 645.63,745.42"/>
    </edge>
    <edge id=":45_6" function="internal">
        <lane id=":45_6_0" index="0" disallow="tram rail_urban rail rail_electric rail_fast ship" speed="9.30" length="5.65" shape="645.63,745.42 645.16,745.63 642.52,746.03 640.10,745.55"/>
    </edge>
    <edge id=":45_4" function="internal">
        <lane id=":45_4_0" index="0" disallow="tram rail_urban rail rail_electric rail_fast ship" speed="12.63" length="13.05" shape="644.76,739.98 645.26,743.37 645.06,746.43 644.21,749.40 642.73,752.53"/>
    </edge>
    <edge id=":45_5" function="internal">
        <lane id=":45_5_0" index="0" disallow="tram rail_urban rail rail_electric rail_fast ship" speed="5.82" length="10.31" shape="644.76,739.98 645.19,743.41 644.56,745.49 642.86,746.20 640.10,745.55"/>
    </edge>
    <edge id=":46_0" function="internal">
        <lane id=":46_0_0" index="0" disallow="bus tram rail_urban rail rail_electric rail_fast ship" speed="6.11" length="9.06" shape="678.42,720.15 676.59,721.95 675.92,723.80 676.40,725.71 678.04,727.67"/>
    </edge>
    <edge id=":46_1" function="internal">
        <lane id=":46_1_0" index="0" disallow="bus tram rail_urban rail rail_electric rail_fast ship" speed="11.11" length="13.58" shape="678.42,720.15 667.71,728.51"/>
    </edge>
    <edge id=":46_2" function="internal">
        <lane id=":46_2_0" index="0" disallow="bus tram rail_urban rail rail_electric rail_fast ship" speed="8.98" length="12.95" shape="678.42,720.15 675.43,721.82 672.41,722.46 669.37,722.07 666.31,720.65"/>
    </edge>
    <edge id=":46_3" function="internal">
        <lane id=":46_3_0" index="0" disallow="bus tram rail_urban rail rail_electric rail_fast ship" speed="3.65" length="4.67" shape="678.42,720.15 676.98,720.22 676.18,719.81 676.03,718.93 676.53,717.57"/>
    </edge>
    <edge id=":46_4" function="internal">
        <lane id=":46_4_0" index="0" disallow="bus tram rail_urban rail rail_electric rail_fast ship" speed="7.62" length="9.10" shape="668.02,717.94 670.16,718.94 672.30,719.21 674.42,718.75 676.53,717.57"/>
    </edge>