<?xml version="1.0" encoding="UTF-8"?>

<!-- generated on 2022-08-23 17:40:57 by Eclipse SUMO netconvert Version 1.9.2
<configuration xmlns:xsi="http://www.w3.org/2001/XMLSchema-instance" xsi:noNamespaceSchemaLocation="http://sumo.dlr.de/xsd/netconvertConfiguration.xsd">

    <input>
        <sumo-net-file value="\\wsl$\Ubuntu\home\svadlmat\UTC\utc/data/maps/sumo/London.net.xml"/>
    </input>

    <output>
        <output-file value="\\wsl$\Ubuntu\home\svadlmat\UTC\utc/data/maps/sumo/london_test.net.xml"/>
    </output>

    <processing>
        <geometry.min-radius.fix.railways value="false"/>
        <geometry.max-grade.fix value="false"/>
        <offset.disable-normalization value="true"/>
        <lefthand value="false"/>
    </processing>

    <edge_removal>
        <keep-edges.explicit value="478,247,372,166,212,208,33,382,101,192,585,8,448,219,312,173,243,209,510,38,213,31,9,605,69,511,512,117,260,1,200,141,56,321,514,624,89,153,592,191,306,316,543,68,183,486,83,354,452,48,93,398,607,582,170,279,34,579,234,224,320,445,523,229,87,11,319,24,196,102,29,52,507,637,487,353,577,72,30,46,395,476,25,268,650,357,122,307,522,530,146,394,586,73,481,96,499,477,252,27,635,594,347,10,451,218,248,371,0,47,623,465,599,126,121,542,203,381,322,110,119,194,284,54,311,193,348,641,600,521,466,593,184,197,276,231,369,103,41,578,356,159,223,45,70,489,544,97,36,118,459,480,144,283,391,74,632,190,309,449,518,120,217,603,317,629,145,88,12,168,463,164,188,239,236,43,310,374,562,506,148,450,626,497,237,272,474,429,92,604,76,373,473,132,75,541,591,7,246,232,365,86,201,220,77,245,177,156,500,150,318,44,602,447,608,308,416,427,26,155,235,335,350,475,515,244,378,430,278,151,315,581,370,71,205,287,149,472,198,285,57,202,616,154,233,537,501,556,127,123,204,314,344,199,3,42,286,625,167,195,383,471,111,106,366,323,622,293,415,55,152,59,455,112,147,225,2,269,334,364,128,638,580,189,23,58"/>
    </edge_removal>

    <junctions>
        <no-turnarounds value="true"/>
        <junctions.corner-detail value="5"/>
        <junctions.limit-turn-speed value="5.5"/>
        <rectangular-lane-cut value="false"/>
    </junctions>

    <pedestrian>
        <walkingareas value="false"/>
    </pedestrian>

    <report>
        <aggregate-warnings value="5"/>
    </report>

</configuration>
-->

<net version="1.9" junctionCornerDetail="5" limitTurnSpeed="5.50" xmlns:xsi="http://www.w3.org/2001/XMLSchema-instance" xsi:noNamespaceSchemaLocation="http://sumo.dlr.de/xsd/net_file.xsd">

    <location netOffset="-700187.91,-5711400.31" convBoundary="10.97,221.47,1784.81,1641.90" origBoundary="-0.115477,51.518028,-0.086294,51.533349" projParameter="+proj=utm +zone=30 +ellps=WGS84 +datum=WGS84 +units=m +no_defs"/>

    <type id="highway.bridleway" priority="1" numLanes="1" speed="2.78" allow="pedestrian" oneway="1" width="2.00"/>
    <type id="highway.bus_guideway" priority="1" numLanes="1" speed="27.78" allow="bus" oneway="1"/>
    <type id="highway.cycleway" priority="1" numLanes="1" speed="8.33" allow="bicycle" oneway="0" width="1.00"/>
    <type id="highway.footway" priority="1" numLanes="1" speed="2.78" allow="pedestrian" oneway="1" width="2.00"/>
    <type id="highway.ford" priority="1" numLanes="1" speed="2.78" allow="army" oneway="0"/>
    <type id="highway.living_street" priority="2" numLanes="1" speed="2.78" disallow="tram rail_urban rail rail_electric rail_fast ship" oneway="0"/>
    <type id="highway.motorway" priority="14" numLanes="2" speed="39.44" allow="private emergency authority army vip passenger hov taxi bus coach delivery truck trailer motorcycle evehicle custom1 custom2" oneway="1"/>
    <type id="highway.motorway_link" priority="9" numLanes="1" speed="22.22" allow="private emergency authority army vip passenger hov taxi bus coach delivery truck trailer motorcycle evehicle custom1 custom2" oneway="1"/>
    <type id="highway.path" priority="1" numLanes="1" speed="2.78" allow="pedestrian bicycle" oneway="0" width="2.00"/>
    <type id="highway.pedestrian" priority="1" numLanes="1" speed="2.78" allow="pedestrian" oneway="1" width="2.00"/>
    <type id="highway.primary" priority="12" numLanes="2" speed="27.78" disallow="tram rail_urban rail rail_electric rail_fast ship" oneway="0"/>
    <type id="highway.primary_link" priority="7" numLanes="1" speed="22.22" disallow="tram rail_urban rail rail_electric rail_fast ship" oneway="0"/>
    <type id="highway.raceway" priority="15" numLanes="2" speed="83.33" allow="vip" oneway="0"/>
    <type id="highway.residential" priority="3" numLanes="1" speed="13.89" disallow="tram rail_urban rail rail_electric rail_fast ship" oneway="0"/>
    <type id="highway.secondary" priority="11" numLanes="1" speed="27.78" disallow="tram rail_urban rail rail_electric rail_fast ship" oneway="0"/>
    <type id="highway.secondary_link" priority="6" numLanes="1" speed="22.22" disallow="tram rail_urban rail rail_electric rail_fast ship" oneway="0"/>
    <type id="highway.service" priority="1" numLanes="1" speed="5.56" allow="pedestrian delivery bicycle" oneway="0"/>
    <type id="highway.stairs" priority="1" numLanes="1" speed="1.39" allow="pedestrian" oneway="1" width="2.00"/>
    <type id="highway.step" priority="1" numLanes="1" speed="1.39" allow="pedestrian" oneway="1" width="2.00"/>
    <type id="highway.steps" priority="1" numLanes="1" speed="1.39" allow="pedestrian" oneway="1" width="2.00"/>
    <type id="highway.tertiary" priority="10" numLanes="1" speed="22.22" disallow="tram rail_urban rail rail_electric rail_fast ship" oneway="0"/>
    <type id="highway.tertiary_link" priority="5" numLanes="1" speed="22.22" disallow="tram rail_urban rail rail_electric rail_fast ship" oneway="0"/>
    <type id="highway.track" priority="1" numLanes="1" speed="5.56" allow="pedestrian motorcycle moped bicycle" oneway="0"/>
    <type id="highway.trunk" priority="13" numLanes="2" speed="27.78" disallow="pedestrian bicycle tram rail_urban rail rail_electric rail_fast ship" oneway="0"/>
    <type id="highway.trunk_link" priority="8" numLanes="1" speed="22.22" disallow="pedestrian bicycle tram rail_urban rail rail_electric rail_fast ship" oneway="0"/>
    <type id="highway.unclassified" priority="4" numLanes="1" speed="13.89" disallow="tram rail_urban rail rail_electric rail_fast ship" oneway="0"/>
    <type id="highway.unsurfaced" priority="1" numLanes="1" speed="8.33" disallow="tram rail_urban rail rail_electric rail_fast ship" oneway="0"/>
    <type id="railway.highspeed" priority="21" numLanes="1" speed="69.44" allow="rail_fast" oneway="1"/>
    <type id="railway.light_rail" priority="19" numLanes="1" speed="27.78" allow="rail_urban" oneway="1"/>
    <type id="railway.preserved" priority="16" numLanes="1" speed="27.78" allow="rail" oneway="1"/>
    <type id="railway.rail" priority="20" numLanes="1" speed="44.44" allow="rail" oneway="1"/>
    <type id="railway.subway" priority="18" numLanes="1" speed="27.78" allow="rail_urban" oneway="1"/>
    <type id="railway.tram" priority="17" numLanes="1" speed="13.89" allow="tram" oneway="1"/>

    <edge id=":0_0" function="internal">
        <lane id=":0_0_0" index="0" disallow="tram rail_urban rail rail_electric rail_fast ship" speed="8.94" length="0.23" shape="1131.06,1309.98 1131.00,1310.20"/>
    </edge>
    <edge id=":0_1" function="internal">
        <lane id=":0_1_0" index="0" disallow="tram rail_urban rail rail_electric rail_fast ship" speed="8.94" length="0.31" shape="1127.91,1309.38 1127.99,1309.08"/>
    </edge>
    <edge id=":1_0" function="internal">
        <lane id=":1_0_0" index="0" disallow="tram rail_urban rail rail_electric rail_fast ship" speed="7.17" length="8.03" shape="875.88,1225.26 875.42,1227.03 875.61,1228.82 876.45,1230.65 877.96,1232.50"/>
    </edge>
    <edge id=":1_1" function="internal">
        <lane id=":1_1_0" index="0" disallow="tram rail_urban rail rail_electric rail_fast ship" speed="8.94" length="9.13" shape="875.88,1225.26 874.79,1227.74 874.00,1229.43 873.04,1231.02 871.44,1233.19"/>
    </edge>
    <edge id=":10_0" function="internal">
        <lane id=":10_0_0" index="0" disallow="bicycle tram rail_urban rail rail_electric rail_fast ship" speed="6.53" length="8.98" shape="1035.32,1370.48 1033.17,1371.63 1031.90,1373.21 1031.49,1375.21 1031.96,1377.63"/>
    </edge>
    <edge id=":10_1" function="internal">
        <lane id=":10_1_0" index="0" disallow="bicycle tram rail_urban rail rail_electric rail_fast ship" speed="13.41" length="11.22" shape="1035.32,1370.48 1024.53,1374.03"/>
        <lane id=":10_1_1" index="1" disallow="bicycle tram rail_urban rail rail_electric rail_fast ship" speed="13.41" length="11.22" shape="1034.23,1367.47 1023.70,1370.94"/>
    </edge>
    <edge id=":100_0" function="internal">
        <lane id=":100_0_0" index="0" disallow="tram rail_urban rail rail_electric rail_fast ship" speed="8.94" length="11.16" shape="925.85,1099.61 922.36,1110.20"/>
    </edge>
    <edge id=":100_1" function="internal">
        <lane id=":100_1_0" index="0" disallow="tram rail_urban rail rail_electric rail_fast ship" speed="6.56" length="9.09" shape="918.89,1103.00 921.11,1104.20 922.43,1105.80 922.84,1107.80 922.36,1110.20"/>
    </edge>
    <edge id=":101_0" function="internal">
        <lane id=":101_0_0" index="0" disallow="tram rail_urban rail rail_electric rail_fast ship" speed="8.94" length="8.80" shape="956.69,1004.51 956.10,1007.06 955.61,1008.78 955.05,1010.47 954.23,1012.96"/>
    </edge>
    <edge id=":101_1" function="internal">
        <lane id=":101_1_0" index="0" disallow="tram rail_urban rail rail_electric rail_fast ship" speed="7.61" length="8.03" shape="956.69,1004.51 956.04,1006.05 954.83,1007.35 953.05,1008.43 950.69,1009.27"/>
    </edge>
    <edge id=":106_0" function="internal">
        <lane id=":106_0_0" index="0" disallow="tram rail_urban rail rail_electric rail_fast ship" speed="8.94" length="0.88" shape="297.97,955.94 298.19,956.07 298.36,956.14 298.54,956.17 298.80,956.17"/>
    </edge>
    <edge id=":107_0" function="internal">
        <lane id=":107_0_0" index="0" disallow="tram rail_urban rail rail_electric rail_fast ship" speed="3.91" length="3.05" shape="242.18,910.58 241.88,911.39 241.94,912.05 242.36,912.55 243.16,912.89"/>
    </edge>
    <edge id=":11_0" function="internal">
        <lane id=":11_0_0" index="0" disallow="tram rail_urban rail rail_electric rail_fast ship" speed="8.94" length="0.30" shape="285.77,1105.09 285.71,1105.16 285.67,1105.20 285.64,1105.26 285.59,1105.33"/>
    </edge>
    <edge id=":114_0" function="internal">
        <lane id=":114_0_0" index="0" disallow="tram rail_urban rail rail_electric rail_fast ship" speed="5.63" length="11.59" shape="433.67,1036.55 436.56,1039.88 438.50,1040.95 439.47,1039.77 439.48,1036.33"/>
    </edge>
    <edge id=":114_1" function="internal">
        <lane id=":114_1_0" index="0" disallow="tram rail_urban rail rail_electric rail_fast ship" speed="8.94" length="12.64" shape="433.67,1036.55 436.01,1039.58 437.59,1041.67 439.02,1043.87 440.90,1047.19"/>
        <lane id=":114_1_1" index="1" disallow="tram rail_urban rail rail_electric rail_fast ship" speed="8.94" length="12.64" shape="431.12,1038.48 433.37,1041.40 434.90,1043.41 436.28,1045.51 438.08,1048.72"/>
    </edge>
    <edge id=":117_0" function="internal">
        <lane id=":117_0_0" index="0" disallow="tram rail_urban rail rail_electric rail_fast ship" speed="8.94" length="0.25" shape="683.19,987.95 683.07,988.17"/>
    </edge>
    <edge id=":12_0" function="internal">
        <lane id=":12_0_0" index="0" disallow="bicycle tram rail_urban rail rail_electric rail_fast ship" speed="13.41" length="9.70" shape="1141.06,1328.10 1131.98,1331.52"/>
    </edge>
    <edge id=":12_1" function="internal">
        <lane id=":12_1_0" index="0" disallow="bicycle tram rail_urban rail rail_electric rail_fast ship" speed="7.19" length="8.52" shape="1141.06,1328.10 1138.45,1328.83 1136.25,1328.94 1134.48,1328.44 1133.13,1327.32"/>
    </edge>
    <edge id=":12_2" function="internal">
        <lane id=":12_2_0" index="0" disallow="bicycle tram rail_urban rail rail_electric rail_fast ship" speed="5.84" length="8.73" shape="1135.63,1325.32 1136.50,1327.08 1136.18,1328.70 1134.67,1330.18 1131.98,1331.52"/>
    </edge>
    <edge id=":12_3" function="internal">
        <lane id=":12_3_0" index="0" disallow="tram rail_urban rail rail_electric rail_fast ship" speed="3.65" length="4.67" shape="1135.63,1325.32 1135.75,1326.76 1135.37,1327.57 1134.50,1327.76 1133.13,1327.32"/>
    </edge>
    <edge id=":120_0" function="internal">
        <lane id=":120_0_0" index="0" disallow="tram rail_urban rail rail_electric rail_fast ship" speed="8.94" length="0.25" shape="871.26,790.78 871.48,790.88"/>
    </edge>
    <edge id=":121_0" function="internal">
        <lane id=":121_0_0" index="0" disallow="tram rail_urban rail rail_electric rail_fast ship" speed="8.94" length="7.30" shape="783.31,734.91 784.59,736.65 785.23,738.03 785.91,739.36 787.32,740.97"/>
    </edge>
    <edge id=":121_1" function="internal">
        <lane id=":121_1_0" index="0" disallow="tram rail_urban rail rail_electric rail_fast ship" speed="7.41" length="7.38" shape="783.31,734.91 783.92,736.04 784.09,737.60 783.82,739.59 783.13,742.02"/>
    </edge>
    <edge id=":123_0" function="internal">
        <lane id=":123_0_0" index="0" disallow="tram rail_urban rail rail_electric rail_fast ship" speed="8.94" length="0.25" shape="941.37,955.66 941.13,955.57"/>
    </edge>
    <edge id=":123_1" function="internal">
        <lane id=":123_1_0" index="0" disallow="tram rail_urban rail rail_electric rail_fast ship" speed="3.65" length="4.67" shape="941.37,955.66 940.55,954.47 940.48,953.58 941.14,952.98 942.56,952.69"/>
    </edge>
    <edge id=":123_2" function="internal">
        <lane id=":123_2_0" index="0" disallow="tram rail_urban rail rail_electric rail_fast ship" speed="8.94" length="0.31" shape="942.26,952.57 942.56,952.69"/>
    </edge>
    <edge id=":123_3" function="internal">
        <lane id=":123_3_0" index="0" disallow="tram rail_urban rail rail_electric rail_fast ship" speed="3.65" length="4.67" shape="942.26,952.57 943.10,953.75 943.19,954.64 942.54,955.24 941.13,955.57"/>
    </edge>
    <edge id=":124_0" function="internal">
        <lane id=":124_0_0" index="0" disallow="tram rail_urban rail rail_electric rail_fast ship" speed="8.94" length="11.12" shape="1212.55,968.19 1209.53,978.89"/>
    </edge>
    <edge id=":124_1" function="internal">
        <lane id=":124_1_0" index="0" disallow="tram rail_urban rail rail_electric rail_fast ship" speed="7.19" length="7.40" shape="1212.55,968.19 1211.40,970.41 1209.38,971.63 1206.85,971.81"/>
    </edge>
    <edge id=":124_4" function="internal">
        <lane id=":124_4_0" index="0" disallow="tram rail_urban rail rail_electric rail_fast ship" speed="7.19" length="4.20" shape="1206.85,971.81 1206.49,971.84 1202.73,971.05"/>
    </edge>
    <edge id=":124_2" function="internal">
        <lane id=":124_2_0" index="0" disallow="tram rail_urban rail rail_electric rail_fast ship" speed="6.51" length="8.96" shape="1206.46,977.99 1206.81,975.56 1206.31,973.60 1204.94,972.10 1202.73,971.05"/>
    </edge>
    <edge id=":124_3" function="internal">
        <lane id=":124_3_0" index="0" disallow="tram rail_urban rail rail_electric rail_fast ship" speed="3.65" length="2.34" shape="1206.46,977.99 1207.56,977.06 1208.44,976.90"/>
    </edge>
    <edge id=":124_5" function="internal">
        <lane id=":124_5_0" index="0" disallow="tram rail_urban rail rail_electric rail_fast ship" speed="3.65" length="2.34" shape="1208.44,976.90 1209.10,977.51 1209.53,978.89"/>
    </edge>
    <edge id=":125_0" function="internal">
        <lane id=":125_0_0" index="0" disallow="tram rail_urban rail rail_electric rail_fast ship" speed="8.94" length="13.13" shape="1215.87,1174.20 1210.49,1186.18"/>
    </edge>
    <edge id=":125_1" function="internal">
        <lane id=":125_1_0" index="0" disallow="tram rail_urban rail rail_electric rail_fast ship" speed="8.03" length="12.96" shape="1215.87,1174.20 1214.01,1177.17 1211.63,1178.96 1208.71,1179.58 1205.26,1179.03"/>
    </edge>
    <edge id=":125_2" function="internal">
        <lane id=":125_2_0" index="0" disallow="tram rail_urban rail rail_electric rail_fast ship" speed="3.65" length="4.67" shape="1215.87,1174.20 1214.65,1174.97 1213.75,1175.01 1213.19,1174.32 1212.94,1172.90"/>
    </edge>
    <edge id=":125_3" function="internal">
        <lane id=":125_3_0" index="0" disallow="tram rail_urban rail rail_electric rail_fast ship" speed="6.53" length="8.25" shape="1206.19,1175.97 1208.39,1176.32 1210.25,1175.93 1211.77,1174.78 1212.94,1172.90"/>
    </edge>
    <edge id=":125_4" function="internal">
        <lane id=":125_4_0" index="0" disallow="tram rail_urban rail rail_electric rail_fast ship" speed="7.37" length="13.03" shape="1206.19,1175.97 1209.40,1177.51 1211.18,1179.72 1211.55,1182.61 1210.49,1186.18"/>
    </edge>
    <edge id=":125_5" function="internal">
        <lane id=":125_5_0" index="0" disallow="tram rail_urban rail rail_electric rail_fast ship" speed="3.65" length="4.67" shape="1206.19,1175.97 1207.11,1177.08 1207.26,1177.97 1206.64,1178.61 1205.26,1179.03"/>
    </edge>
    <edge id=":126_0" function="internal">
        <lane id=":126_0_0" index="0" disallow="tram rail_urban rail rail_electric rail_fast ship" speed="6.39" length="9.04" shape="1175.77,1170.01 1173.30,1169.63 1171.35,1170.14 1169.90,1171.55 1168.96,1173.87"/>
    </edge>
    <edge id=":126_1" function="internal">
        <lane id=":126_1_0" index="0" disallow="tram rail_urban rail rail_electric rail_fast ship" speed="8.40" length="14.19" shape="1175.77,1170.01 1172.18,1168.38 1169.81,1166.06 1168.66,1163.04 1168.74,1159.34"/>
    </edge>
    <edge id=":126_2" function="internal">
        <lane id=":126_2_0" index="0" disallow="tram rail_urban rail rail_electric rail_fast ship" speed="3.65" length="4.67" shape="1175.77,1170.01 1174.85,1168.89 1174.71,1168.01 1175.32,1167.36 1176.70,1166.95"/>
    </edge>
    <edge id=":126_3" function="internal">
        <lane id=":126_3_0" index="0" disallow="tram rail_urban rail rail_electric rail_fast ship" speed="6.98" length="9.50" shape="1171.89,1159.87 1171.85,1162.31 1172.64,1164.31 1174.26,1165.85 1176.70,1166.95"/>
    </edge>
    <edge id=":126_4" function="internal">
        <lane id=":126_4_0" index="0" disallow="tram rail_urban rail rail_electric rail_fast ship" speed="8.94" length="14.30" shape="1171.89,1159.87 1168.96,1173.87"/>
    </edge>
    <edge id=":126_5" function="internal">
        <lane id=":126_5_0" index="0" disallow="tram rail_urban rail rail_electric rail_fast ship" speed="3.65" length="4.67" shape="1171.89,1159.87 1170.90,1160.92 1170.05,1161.18 1169.33,1160.66 1168.74,1159.34"/>
    </edge>
    <edge id=":127_0" function="internal">
        <lane id=":127_0_0" index="0" disallow="tram rail_urban rail rail_electric rail_fast ship" speed="7.23" length="9.93" shape="1245.85,1120.02 1243.42,1119.80 1241.31,1120.49 1239.52,1122.07 1238.06,1124.55"/>
    </edge>
    <edge id=":127_1" function="internal">
        <lane id=":127_1_0" index="0" disallow="tram rail_urban rail rail_electric rail_fast ship" speed="8.94" length="14.47" shape="1245.85,1120.02 1231.85,1116.36"/>
    </edge>
    <edge id=":127_2" function="internal">
        <lane id=":127_2_0" index="0" disallow="tram rail_urban rail rail_electric rail_fast ship" speed="3.65" length="4.67" shape="1245.85,1120.02 1244.89,1118.95 1244.70,1118.07 1245.28,1117.40 1246.65,1116.92"/>
    </edge>
    <edge id=":127_3" function="internal">
        <lane id=":127_3_0" index="0" disallow="tram rail_urban rail rail_electric rail_fast ship" speed="8.94" length="14.44" shape="1232.67,1113.27 1246.65,1116.92"/>
    </edge>
    <edge id=":127_4" function="internal">
        <lane id=":127_4_0" index="0" disallow="tram rail_urban rail rail_electric rail_fast ship" speed="7.74" length="14.84" shape="1232.67,1113.27 1236.50,1114.90 1238.68,1117.33 1239.19,1120.54 1238.06,1124.55"/>
    </edge>
    <edge id=":127_5" function="internal">
        <lane id=":127_5_0" index="0" disallow="tram rail_urban rail rail_electric rail_fast ship" speed="3.65" length="4.67" shape="1232.67,1113.27 1233.63,1114.35 1233.81,1115.23 1233.21,1115.90 1231.85,1116.36"/>
    </edge>
    <edge id=":127_6" function="internal">
        <lane id=":127_6_0" index="0" disallow="tram rail_urban rail rail_electric rail_fast ship" speed="6.19" length="9.05" shape="1235.13,1123.24 1235.83,1120.80 1235.51,1118.84 1234.19,1117.36 1231.85,1116.36"/>
    </edge>
    <edge id=":127_7" function="internal">
        <lane id=":127_7_0" index="0" disallow="tram rail_urban rail rail_electric rail_fast ship" speed="8.62" length="14.47" shape="1235.13,1123.24 1237.25,1119.73 1239.87,1117.50 1243.00,1116.57 1246.65,1116.92"/>
    </edge>
    <edge id=":127_8" function="internal">
        <lane id=":127_8_0" index="0" disallow="tram rail_urban rail rail_electric rail_fast ship" speed="3.65" length="4.67" shape="1235.13,1123.24 1236.35,1122.47 1237.25,1122.43 1237.81,1123.13 1238.06,1124.55"/>
    </edge>
    <edge id=":128_0" function="internal">
        <lane id=":128_0_0" index="0" disallow="tram rail_urban rail rail_electric rail_fast ship" speed="6.41" length="9.02" shape="1186.75,1105.96 1184.26,1105.79 1182.35,1106.47 1181.01,1107.98 1180.25,1110.34"/>
    </edge>
    <edge id=":128_1" function="internal">
        <lane id=":128_1_0" index="0" disallow="tram rail_urban rail rail_electric rail_fast ship" speed="8.00" length="14.27" shape="1186.75,1105.96 1183.06,1104.61 1180.69,1102.41 1179.65,1099.37 1179.94,1095.48"/>
    </edge>
    <edge id=":128_2" function="internal">
        <lane id=":128_2_0" index="0" disallow="tram rail_urban rail rail_electric rail_fast ship" speed="3.65" length="4.67" shape="1186.75,1105.96 1185.74,1104.93 1185.51,1104.06 1186.07,1103.36 1187.41,1102.83"/>
    </edge>
    <edge id=":128_3" function="internal">
        <lane id=":128_3_0" index="0" disallow="tram rail_urban rail rail_electric rail_fast ship" speed="6.51" length="9.08" shape="1183.07,1096.17 1182.89,1098.64 1183.55,1100.57 1185.06,1101.97 1187.41,1102.83"/>
    </edge>
    <edge id=":128_4" function="internal">
        <lane id=":128_4_0" index="0" disallow="tram rail_urban rail rail_electric rail_fast ship" speed="8.94" length="14.45" shape="1183.07,1096.17 1180.25,1110.34"/>
    </edge>
    <edge id=":128_5" function="internal">
        <lane id=":128_5_0" index="0" disallow="tram rail_urban rail rail_electric rail_fast ship" speed="3.65" length="2.34" shape="1183.07,1096.17 1182.03,1097.17 1181.16,1097.39"/>
    </edge>
    <edge id=":128_9" function="internal">
        <lane id=":128_9_0" index="0" disallow="tram rail_urban rail rail_electric rail_fast ship" speed="3.65" length="2.34" shape="1181.16,1097.39 1180.46,1096.82 1179.94,1095.48"/>
    </edge>
    <edge id=":128_6" function="internal">
        <lane id=":128_6_0" index="0" disallow="tram rail_urban rail rail_electric rail_fast ship" speed="8.94" length="14.56" shape="1177.11,1109.76 1179.94,1095.48"/>
    </edge>
    <edge id=":128_7" function="internal">
        <lane id=":128_7_0" index="0" disallow="tram rail_urban rail rail_electric rail_fast ship" speed="7.91" length="6.21" shape="1177.11,1109.76 1178.31,1106.03 1179.82,1104.31"/>
    </edge>
    <edge id=":128_8" function="internal">
        <lane id=":128_8_0" index="0" disallow="tram rail_urban rail rail_electric rail_fast ship" speed="3.65" length="2.34" shape="1177.11,1109.76 1178.11,1108.73 1178.97,1108.48"/>
    </edge>
    <edge id=":128_10" function="internal">
        <lane id=":128_10_0" index="0" disallow="tram rail_urban rail rail_electric rail_fast ship" speed="7.91" length="8.09" shape="1179.82,1104.31 1180.43,1103.63 1183.46,1102.56 1187.41,1102.83"/>
    </edge>
    <edge id=":128_11" function="internal">
        <lane id=":128_11_0" index="0" disallow="tram rail_urban rail rail_electric rail_fast ship" speed="3.65" length="2.34" shape="1178.97,1108.48 1179.68,1109.02 1180.25,1110.34"/>
    </edge>
    <edge id=":129_0" function="internal">
        <lane id=":129_0_0" index="0" disallow="tram rail_urban rail rail_electric rail_fast ship" speed="8.94" length="14.26" shape="1274.72,1127.61 1260.96,1123.88"/>
    </edge>
    <edge id=":129_1" function="internal">
        <lane id=":129_1_0" index="0" disallow="tram rail_urban rail rail_electric rail_fast ship" speed="7.99" length="14.23" shape="1274.72,1127.61 1271.16,1126.01 1268.97,1123.66 1268.16,1120.56 1268.73,1116.69"/>
    </edge>
    <edge id=":129_2" function="internal">
        <lane id=":129_2_0" index="0" disallow="tram rail_urban rail rail_electric rail_fast ship" speed="3.65" length="4.67" shape="1274.72,1127.61 1273.79,1126.51 1273.62,1125.63 1274.23,1124.97 1275.60,1124.54"/>
    </edge>
    <edge id=":129_3" function="internal">
        <lane id=":129_3_0" index="0" disallow="tram rail_urban rail rail_electric rail_fast ship" speed="6.49" length="9.03" shape="1271.80,1117.61 1271.44,1120.06 1271.95,1122.03 1273.34,1123.52 1275.60,1124.54"/>
    </edge>
    <edge id=":129_4" function="internal">
        <lane id=":129_4_0" index="0" disallow="tram rail_urban rail rail_electric rail_fast ship" speed="8.11" length="14.17" shape="1271.80,1117.61 1270.19,1121.15 1267.84,1123.38 1264.76,1124.29 1260.96,1123.88"/>
    </edge>
    <edge id=":129_5" function="internal">
        <lane id=":129_5_0" index="0" disallow="tram rail_urban rail rail_electric rail_fast ship" speed="3.65" length="4.67" shape="1271.80,1117.61 1270.69,1118.53 1269.81,1118.68 1269.16,1118.07 1268.73,1116.69"/>
    </edge>
    <edge id=":129_6" function="internal">
        <lane id=":129_6_0" index="0" disallow="tram rail_urban rail rail_electric rail_fast ship" speed="6.63" length="9.15" shape="1261.75,1120.78 1264.20,1121.04 1266.18,1120.44 1267.69,1118.99 1268.73,1116.69"/>
    </edge>
    <edge id=":129_7" function="internal">
        <lane id=":129_7_0" index="0" disallow="tram rail_urban rail rail_electric rail_fast ship" speed="8.94" length="14.35" shape="1261.75,1120.78 1275.60,1124.54"/>
    </edge>
    <edge id=":129_8" function="internal">
        <lane id=":129_8_0" index="0" disallow="tram rail_urban rail rail_electric rail_fast ship" speed="3.65" length="4.67" shape="1261.75,1120.78 1262.71,1121.85 1262.90,1122.72 1262.32,1123.40 1260.96,1123.88"/>
    </edge>
    <edge id=":130_0" function="internal">
        <lane id=":130_0_0" index="0" disallow="tram rail_urban rail rail_electric rail_fast ship" speed="8.94" length="14.23" shape="1326.35,1142.70 1312.75,1138.53"/>
    </edge>
    <edge id=":130_1" function="internal">
        <lane id=":130_1_0" index="0" disallow="tram rail_urban rail rail_electric rail_fast ship" speed="8.12" length="14.16" shape="1326.35,1142.70 1322.92,1141.00 1320.81,1138.59 1320.02,1135.45 1320.54,1131.60"/>
    </edge>
    <edge id=":130_2" function="internal">
        <lane id=":130_2_0" index="0" disallow="tram rail_urban rail rail_electric rail_fast ship" speed="3.65" length="4.67" shape="1326.35,1142.70 1325.46,1141.56 1325.33,1140.68 1325.96,1140.04 1327.35,1139.65"/>
    </edge>
    <edge id=":130_3" function="internal">
        <lane id=":130_3_0" index="0" disallow="tram rail_urban rail rail_electric rail_fast ship" speed="6.64" length="9.15" shape="1323.62,1132.46 1323.28,1134.96 1323.78,1137.00 1325.14,1138.56 1327.35,1139.65"/>
    </edge>
    <edge id=":130_4" function="internal">
        <lane id=":130_4_0" index="0" disallow="tram rail_urban rail rail_electric rail_fast ship" speed="7.99" length="14.21" shape="1323.62,1132.46 1322.05,1136.03 1319.71,1138.23 1316.61,1139.06 1312.75,1138.53"/>
    </edge>
    <edge id=":130_5" function="internal">
        <lane id=":130_5_0" index="0" disallow="tram rail_urban rail rail_electric rail_fast ship" speed="3.65" length="4.67" shape="1323.62,1132.46 1322.53,1133.40 1321.65,1133.57 1320.99,1132.97 1320.54,1131.60"/>
    </edge>
    <edge id=":130_6" function="internal">
        <lane id=":130_6_0" index="0" disallow="tram rail_urban rail rail_electric rail_fast ship" speed="6.49" length="9.03" shape="1313.63,1135.45 1316.09,1135.79 1318.06,1135.26 1319.54,1133.86 1320.54,1131.60"/>
    </edge>
    <edge id=":130_7" function="internal">
        <lane id=":130_7_0" index="0" disallow="tram rail_urban rail rail_electric rail_fast ship" speed="8.94" length="14.34" shape="1313.63,1135.45 1327.35,1139.65"/>
    </edge>
    <edge id=":130_8" function="internal">
        <lane id=":130_8_0" index="0" disallow="tram rail_urban rail rail_electric rail_fast ship" speed="3.65" length="4.67" shape="1313.63,1135.45 1314.57,1136.55 1314.73,1137.43 1314.12,1138.09 1312.75,1138.53"/>
    </edge>
    <edge id=":131_0" function="internal">
        <lane id=":131_0_0" index="0" disallow="tram rail_urban rail rail_electric rail_fast ship" speed="8.94" length="14.33" shape="1331.79,1071.32 1335.20,1072.60 1338.39,1074.11 1341.57,1075.62 1344.98,1076.88"/>
    </edge>
    <edge id=":131_1" function="internal">
        <lane id=":131_1_0" index="0" disallow="tram rail_urban rail rail_electric rail_fast ship" speed="8.00" length="14.02" shape="1331.79,1071.32 1335.27,1072.92 1337.43,1075.26 1338.25,1078.33 1337.75,1082.13"/>
    </edge>
    <edge id=":131_2" function="internal">
        <lane id=":131_2_0" index="0" disallow="tram rail_urban rail rail_electric rail_fast ship" speed="3.65" length="4.67" shape="1331.79,1071.32 1332.71,1072.43 1332.87,1073.31 1332.26,1073.96 1330.88,1074.39"/>
    </edge>
    <edge id=":131_3" function="internal">
        <lane id=":131_3_0" index="0" disallow="tram rail_urban rail rail_electric rail_fast ship" speed="6.51" length="8.92" shape="1334.67,1081.27 1334.99,1078.85 1334.46,1076.89 1333.09,1075.41 1330.88,1074.39"/>
    </edge>
    <edge id=":131_4" function="internal">