<?xml version="1.0" encoding="UTF-8"?>

<!-- generated on 2022-09-13 08:46:42 by Eclipse SUMO netconvert Version 1.12.0
<configuration xmlns:xsi="http://www.w3.org/2001/XMLSchema-instance" xsi:noNamespaceSchemaLocation="http://sumo.dlr.de/xsd/netconvertConfiguration.xsd">

    <input>
        <sumo-net-file value="/home/svadlmat/UTC/utc/data/maps/sumo/Sydney.net.xml"/>
    </input>

    <output>
        <output-file value="/home/svadlmat/UTC/utc/data/maps/sumo/sydney_scenario_1.net.xml"/>
    </output>

    <processing>
        <geometry.min-radius.fix.railways value="false"/>
        <geometry.max-grade.fix value="false"/>
        <offset.disable-normalization value="true"/>
        <lefthand value="false"/>
    </processing>

    <edge_removal>
        <keep-edges.explicit value="89,210,86,698,916,288,990,116,686,457,805,11,405,488,137,834,658,639,764,989,287,603,891,17,190,76,21,496,958,142,430,501,18,954,318,1022,892,217,1020,22,323,346,890,952,101,699,377,130,385,548,242,961,371,62,741,84,175,960,23,401,228,229,339,341,382,503,792,936,953,444,506,502,510,105,627,136,763,235,110,996,862,135,442,547,898,131,138,498,743,1003,711,629,123,245,480,640,659,102,762,869,937,746,266,1018,513,822,784,951,984,616,226,267,12,507,515,263,657,695,284,588,38,859,87,523,347,821,283,861,253,335,394,98,516,1017,554,939,765,970,894,985,438,706,1009,244,511,578,940,922,316,637,114,115,590,628,525,886,1005,374,189,508,713,774,638,909,948,611,655,768,968,19,224,947,906,526,1004,479,317,383,632,791,810,549,441,941,391,440,532,967,631,1006,972,583,908,592,878,975,233,885,286,24,745,20,269,373,439,390,744,739,1007,15,505,962,630,75,334,893,594,268,13,833,443,656,809,604,896,712,907,1019,432,254,90,99,527,157,1021,608,16,375,602,170,752,29,740,386,487,74,415,766,524,931,512,779,237,376,387,93,605,963,957,472,315,884,92,742,769,129,174,389,595,767,1002,305,230,546,509,615,777,778,388,225,378,252,192,1029,551,143,384,161,976,112,550,552,553,132,379,111,159,285"/>
    </edge_removal>

    <junctions>
        <no-turnarounds value="true"/>
        <junctions.corner-detail value="5"/>
        <junctions.limit-turn-speed value="5.5"/>
        <rectangular-lane-cut value="false"/>
    </junctions>

    <pedestrian>
        <walkingareas value="false"/>
    </pedestrian>

    <report>
        <aggregate-warnings value="5"/>
    </report>

</configuration>
-->

<net version="1.9" junctionCornerDetail="5" limitTurnSpeed="5.50" xmlns:xsi="http://www.w3.org/2001/XMLSchema-instance" xsi:noNamespaceSchemaLocation="http://sumo.dlr.de/xsd/net_file.xsd">

    <location netOffset="-336586.08,3754670.31" convBoundary="0.00,12.34,2362.53,2196.77" origBoundary="151.232525,-33.920080,151.266296,-33.899237" projParameter="+proj=utm +zone=56 +ellps=WGS84 +datum=WGS84 +units=m +no_defs"/>

    <type id="highway.bridleway" priority="1" numLanes="1" speed="2.78" allow="pedestrian" oneway="1" width="2.00"/>
    <type id="highway.bus_guideway" priority="1" numLanes="1" speed="27.78" allow="bus" oneway="1"/>
    <type id="highway.cycleway" priority="1" numLanes="1" speed="8.33" allow="bicycle" oneway="0" width="1.00"/>
    <type id="highway.footway" priority="1" numLanes="1" speed="2.78" allow="pedestrian" oneway="1" width="2.00"/>
    <type id="highway.ford" priority="1" numLanes="1" speed="2.78" allow="army" oneway="0"/>
    <type id="highway.living_street" priority="2" numLanes="1" speed="2.78" disallow="tram rail_urban rail rail_electric rail_fast ship" oneway="0"/>
    <type id="highway.motorway" priority="14" numLanes="2" speed="39.44" allow="private emergency authority army vip passenger hov taxi bus coach delivery truck trailer motorcycle evehicle custom1 custom2" oneway="1"/>
    <type id="highway.motorway_link" priority="9" numLanes="1" speed="22.22" allow="private emergency authority army vip passenger hov taxi bus coach delivery truck trailer motorcycle evehicle custom1 custom2" oneway="1"/>
    <type id="highway.path" priority="1" numLanes="1" speed="2.78" allow="pedestrian bicycle" oneway="0" width="2.00"/>
    <type id="highway.pedestrian" priority="1" numLanes="1" speed="2.78" allow="pedestrian" oneway="1" width="2.00"/>
    <type id="highway.primary" priority="12" numLanes="2" speed="27.78" disallow="tram rail_urban rail rail_electric rail_fast ship" oneway="0"/>
    <type id="highway.primary_link" priority="7" numLanes="1" speed="22.22" disallow="tram rail_urban rail rail_electric rail_fast ship" oneway="0"/>
    <type id="highway.raceway" priority="15" numLanes="2" speed="83.33" allow="vip" oneway="0"/>
    <type id="highway.residential" priority="3" numLanes="1" speed="13.89" disallow="tram rail_urban rail rail_electric rail_fast ship" oneway="0"/>
    <type id="highway.secondary" priority="11" numLanes="1" speed="27.78" disallow="tram rail_urban rail rail_electric rail_fast ship" oneway="0"/>
    <type id="highway.secondary_link" priority="6" numLanes="1" speed="22.22" disallow="tram rail_urban rail rail_electric rail_fast ship" oneway="0"/>
    <type id="highway.service" priority="1" numLanes="1" speed="5.56" allow="pedestrian delivery bicycle" oneway="0"/>
    <type id="highway.stairs" priority="1" numLanes="1" speed="1.39" allow="pedestrian" oneway="1" width="2.00"/>
    <type id="highway.step" priority="1" numLanes="1" speed="1.39" allow="pedestrian" oneway="1" width="2.00"/>
    <type id="highway.steps" priority="1" numLanes="1" speed="1.39" allow="pedestrian" oneway="1" width="2.00"/>
    <type id="highway.tertiary" priority="10" numLanes="1" speed="22.22" disallow="tram rail_urban rail rail_electric rail_fast ship" oneway="0"/>
    <type id="highway.tertiary_link" priority="5" numLanes="1" speed="22.22" disallow="tram rail_urban rail rail_electric rail_fast ship" oneway="0"/>
    <type id="highway.track" priority="1" numLanes="1" speed="5.56" allow="pedestrian motorcycle moped bicycle" oneway="0"/>
    <type id="highway.trunk" priority="13" numLanes="2" speed="27.78" disallow="pedestrian bicycle tram rail_urban rail rail_electric rail_fast ship" oneway="0"/>
    <type id="highway.trunk_link" priority="8" numLanes="1" speed="22.22" disallow="pedestrian bicycle tram rail_urban rail rail_electric rail_fast ship" oneway="0"/>
    <type id="highway.unclassified" priority="4" numLanes="1" speed="13.89" disallow="tram rail_urban rail rail_electric rail_fast ship" oneway="0"/>
    <type id="highway.unsurfaced" priority="1" numLanes="1" speed="8.33" disallow="tram rail_urban rail rail_electric rail_fast ship" oneway="0"/>
    <type id="railway.highspeed" priority="21" numLanes="1" speed="69.44" allow="rail_fast" oneway="1"/>
    <type id="railway.light_rail" priority="19" numLanes="1" speed="27.78" allow="rail_urban" oneway="1"/>
    <type id="railway.preserved" priority="16" numLanes="1" speed="27.78" allow="rail" oneway="1"/>
    <type id="railway.rail" priority="20" numLanes="1" speed="44.44" allow="rail" oneway="1"/>
    <type id="railway.subway" priority="18" numLanes="1" speed="27.78" allow="rail_urban" oneway="1"/>
    <type id="railway.tram" priority="17" numLanes="1" speed="13.89" allow="tram" oneway="1"/>

    <edge id=":101_0" function="internal">
        <lane id=":101_0_0" index="0" disallow="tram rail_urban rail rail_electric rail_fast ship" speed="22.22" length="11.21" shape="1711.61,592.22 1700.55,593.99"/>
    </edge>
    <edge id=":101_1" function="internal">
        <lane id=":101_1_0" index="0" disallow="tram rail_urban rail rail_electric rail_fast ship" speed="6.50" length="9.03" shape="1705.19,587.59 1705.24,590.06 1704.48,591.95 1702.91,593.27 1700.55,593.99"/>
    </edge>
    <edge id=":102_0" function="internal">
        <lane id=":102_0_0" index="0" disallow="tram rail_urban rail rail_electric rail_fast ship" speed="3.90" length="2.63" shape="1143.35,483.49 1143.38,484.21 1143.17,484.76 1142.72,485.15 1142.03,485.36"/>
    </edge>
    <edge id=":103_0" function="internal">
        <lane id=":103_0_0" index="0" disallow="tram rail_urban rail rail_electric rail_fast ship" speed="6.54" length="8.92" shape="2208.26,246.85 2205.95,247.58 2204.41,248.88 2203.64,250.76 2203.62,253.21"/>
    </edge>
    <edge id=":103_1" function="internal">
        <lane id=":103_1_0" index="0" disallow="tram rail_urban rail rail_electric rail_fast ship" speed="13.89" length="10.98" shape="2208.26,246.85 2197.42,248.62"/>
    </edge>
    <edge id=":104_0" function="internal">
        <lane id=":104_0_0" index="0" disallow="tram rail_urban rail rail_electric rail_fast ship" speed="13.89" length="11.20" shape="1535.76,380.19 1537.56,391.24"/>
    </edge>
    <edge id=":104_1" function="internal">
        <lane id=":104_1_0" index="0" disallow="tram rail_urban rail rail_electric rail_fast ship" speed="6.50" length="9.03" shape="1535.76,380.19 1535.81,382.66 1535.05,384.55 1533.48,385.86 1531.12,386.59"/>
    </edge>
    <edge id=":108_0" function="internal">
        <lane id=":108_0_0" index="0" disallow="tram rail_urban rail rail_electric rail_fast ship" speed="13.89" length="10.68" shape="2321.54,222.48 2323.11,233.04"/>
    </edge>
    <edge id=":108_1" function="internal">
        <lane id=":108_1_0" index="0" disallow="tram rail_urban rail rail_electric rail_fast ship" speed="6.57" length="8.75" shape="2321.54,222.48 2321.53,224.82 2320.76,226.65 2319.25,227.97 2316.97,228.78"/>
    </edge>
    <edge id=":109_0" function="internal">
        <lane id=":109_0_0" index="0" disallow="tram rail_urban rail rail_electric rail_fast ship" speed="3.90" length="2.59" shape="1139.50,453.78 1138.83,454.01 1138.39,454.39 1138.18,454.94 1138.21,455.65"/>
    </edge>
    <edge id=":113_0" function="internal">
        <lane id=":113_0_0" index="0" disallow="tram rail_urban rail rail_electric rail_fast ship" speed="27.78" length="0.30" shape="1492.91,114.40 1492.95,114.70"/>
    </edge>
    <edge id=":116_0" function="internal">
        <lane id=":116_0_0" index="0" disallow="tram rail_urban rail rail_electric rail_fast ship" speed="13.89" length="0.29" shape="447.16,625.26 447.22,625.54"/>
    </edge>
    <edge id=":117_0" function="internal">
        <lane id=":117_0_0" index="0" disallow="tram rail_urban rail rail_electric rail_fast ship" speed="27.78" length="0.28" shape="1470.96,638.11 1470.69,638.18"/>
    </edge>
    <edge id=":122_0" function="internal">
        <lane id=":122_0_0" index="0" disallow="tram rail_urban rail rail_electric rail_fast ship" speed="3.91" length="2.52" shape="2211.73,313.54 2211.72,314.22 2211.50,314.75 2211.06,315.12 2210.41,315.33"/>
    </edge>
    <edge id=":124_0" function="internal">
        <lane id=":124_0_0" index="0" disallow="tram rail_urban rail rail_electric rail_fast ship" speed="27.78" length="0.30" shape="1389.74,676.37 1389.49,676.53"/>
    </edge>
    <edge id=":127_0" function="internal">
        <lane id=":127_0_0" index="0" disallow="tram rail_urban rail rail_electric rail_fast ship" speed="6.50" length="9.04" shape="1537.35,354.82 1534.98,355.54 1533.42,356.85 1532.66,358.75 1532.71,361.23"/>
    </edge>
    <edge id=":127_1" function="internal">
        <lane id=":127_1_0" index="0" disallow="tram rail_urban rail rail_electric rail_fast ship" speed="20.84" length="11.22" shape="1530.96,350.15 1532.71,361.23"/>
    </edge>
    <edge id=":129_0" function="internal">
        <lane id=":129_0_0" index="0" disallow="tram rail_urban rail rail_electric rail_fast ship" speed="22.22" length="0.10" shape="1918.41,1529.81 1918.47,1529.86"/>
    </edge>
    <edge id=":130_0" function="internal">
        <lane id=":130_0_0" index="0" disallow="tram rail_urban rail rail_electric rail_fast ship" speed="3.91" length="3.02" shape="1834.01,1082.28 1834.74,1081.83 1835.39,1081.77 1835.97,1082.08 1836.46,1082.78"/>
    </edge>
    <edge id=":132_0" function="internal">
        <lane id=":132_0_0" index="0" disallow="tram rail_urban rail rail_electric rail_fast ship" speed="6.05" length="9.07" shape="1771.55,1106.79 1772.31,1109.25 1773.65,1110.68 1775.57,1111.07 1778.06,1110.42"/>
    </edge>
    <edge id=":132_1" function="internal">
        <lane id=":132_1_0" index="0" disallow="tram rail_urban rail rail_electric rail_fast ship" speed="27.78" length="16.46" shape="1771.55,1106.79 1771.88,1112.07 1771.41,1116.16 1770.85,1119.66 1770.90,1123.16"/>
    </edge>
    <edge id=":132_2" function="internal">
        <lane id=":132_2_0" index="0" disallow="tram rail_urban rail rail_electric rail_fast ship" speed="8.04" length="13.44" shape="1768.39,1107.29 1768.75,1111.84 1768.20,1115.28 1766.76,1117.62 1764.43,1118.85"/>
    </edge>
    <edge id=":135_0" function="internal">
        <lane id=":135_0_0" index="0" disallow="tram rail_urban rail rail_electric rail_fast ship" speed="6.51" length="9.03" shape="1845.85,1202.36 1843.48,1203.11 1841.93,1204.43 1841.18,1206.32 1841.23,1208.80"/>
    </edge>
    <edge id=":135_1" function="internal">
        <lane id=":135_1_0" index="0" disallow="tram rail_urban rail rail_electric rail_fast ship" speed="13.89" length="11.20" shape="1845.85,1202.36 1834.79,1204.18"/>
    </edge>
    <edge id=":135_2" function="internal">
        <lane id=":135_2_0" index="0" disallow="tram rail_urban rail rail_electric rail_fast ship" speed="7.33" length="2.51" shape="1834.28,1201.02 1836.78,1201.16"/>
    </edge>
    <edge id=":135_3" function="internal">
        <lane id=":135_3_0" index="0" disallow="tram rail_urban rail rail_electric rail_fast ship" speed="3.65" length="1.44" shape="1834.28,1201.02 1835.59,1201.61"/>
    </edge>
    <edge id=":135_4" function="internal">
        <lane id=":135_4_0" index="0" disallow="tram rail_urban rail rail_electric rail_fast ship" speed="7.33" length="9.22" shape="1836.78,1201.16 1838.78,1202.51 1840.26,1205.05 1841.23,1208.80"/>
    </edge>
    <edge id=":135_5" function="internal">
        <lane id=":135_5_0" index="0" disallow="tram rail_urban rail rail_electric rail_fast ship" speed="3.65" length="3.23" shape="1835.59,1201.61 1836.11,1202.34 1835.85,1203.19 1834.79,1204.18"/>
    </edge>
    <edge id=":136_0" function="internal">
        <lane id=":136_0_0" index="0" disallow="tram rail_urban rail rail_electric rail_fast ship" speed="22.23" length="8.26" shape="1765.00,1086.42 1765.98,1088.71 1767.35,1090.01 1768.68,1091.31 1769.53,1093.63"/>
        <lane id=":136_0_1" index="1" disallow="tram rail_urban rail rail_electric rail_fast ship" speed="22.23" length="8.26" shape="1765.00,1086.42 1766.37,1094.10"/>
    </edge>
    <edge id=":137_0" function="internal">
        <lane id=":137_0_0" index="0" disallow="tram rail_urban rail rail_electric rail_fast ship" speed="13.89" length="0.31" shape="1722.95,1446.81 1722.64,1446.82"/>
    </edge>
    <edge id=":137_1" function="internal">
        <lane id=":137_1_0" index="0" disallow="tram rail_urban rail rail_electric rail_fast ship" speed="3.65" length="2.34" shape="1722.95,1446.81 1721.72,1446.05 1721.30,1445.27"/>
    </edge>
    <edge id=":137_4" function="internal">
        <lane id=":137_4_0" index="0" disallow="tram rail_urban rail rail_electric rail_fast ship" speed="3.65" length="2.34" shape="1721.30,1445.27 1721.67,1444.45 1722.85,1443.62"/>
    </edge>
    <edge id=":137_2" function="internal">
        <lane id=":137_2_0" index="0" disallow="tram rail_urban rail rail_electric rail_fast ship" speed="13.89" length="0.29" shape="1722.56,1443.62 1722.85,1443.62"/>
    </edge>
    <edge id=":137_3" function="internal">
        <lane id=":137_3_0" index="0" disallow="tram rail_urban rail rail_electric rail_fast ship" speed="3.65" length="2.34" shape="1722.56,1443.62 1723.78,1444.39 1724.20,1445.18"/>
    </edge>
    <edge id=":137_5" function="internal">
        <lane id=":137_5_0" index="0" disallow="tram rail_urban rail rail_electric rail_fast ship" speed="3.65" length="2.34" shape="1724.20,1445.18 1723.82,1445.99 1722.64,1446.82"/>
    </edge>
    <edge id=":139_0" function="internal">
        <lane id=":139_0_0" index="0" disallow="tram rail_urban rail rail_electric rail_fast ship" speed="22.22" length="9.33" shape="1979.60,1667.94 1981.16,1677.13"/>
    </edge>
    <edge id=":139_1" function="internal">
        <lane id=":139_1_0" index="0" disallow="tram rail_urban rail rail_electric rail_fast ship" speed="6.06" length="7.80" shape="1979.60,1667.94 1979.80,1670.70 1979.49,1672.74 1978.67,1674.04 1977.35,1674.60"/>
    </edge>
    <edge id=":139_2" function="internal">
        <lane id=":139_2_0" index="0" disallow="tram rail_urban rail rail_electric rail_fast ship" speed="6.22" length="7.76" shape="1976.95,1671.43 1978.34,1671.64 1979.51,1672.66 1980.45,1674.49 1981.16,1677.13"/>
    </edge>
    <edge id=":139_3" function="internal">
        <lane id=":139_3_0" index="0" disallow="tram rail_urban rail rail_electric rail_fast ship" speed="3.65" length="4.67" shape="1976.95,1671.43 1978.24,1672.07 1978.73,1672.81 1978.44,1673.66 1977.35,1674.60"/>
    </edge>
    <edge id=":140_0" function="internal">
        <lane id=":140_0_0" index="0" disallow="tram rail_urban rail rail_electric rail_fast ship" speed="6.53" length="9.06" shape="1531.09,1637.21 1528.71,1637.94 1527.14,1639.26 1526.36,1641.15 1526.39,1643.62"/>
    </edge>
    <edge id=":140_1" function="internal">
        <lane id=":140_1_0" index="0" disallow="tram rail_urban rail rail_electric rail_fast ship" speed="3.65" length="1.44" shape="1531.09,1637.21 1529.78,1636.61"/>
    </edge>
    <edge id=":140_4" function="internal">
        <lane id=":140_4_0" index="0" disallow="tram rail_urban rail rail_electric rail_fast ship" speed="3.65" length="3.23" shape="1529.78,1636.61 1529.26,1635.88 1529.53,1635.03 1530.58,1634.05"/>
    </edge>
    <edge id=":140_2" function="internal">
        <lane id=":140_2_0" index="0" disallow="tram rail_urban rail rail_electric rail_fast ship" speed="6.50" length="9.03" shape="1524.19,1629.39 1524.91,1631.76 1526.22,1633.33 1528.11,1634.09 1530.58,1634.05"/>
    </edge>
    <edge id=":140_3" function="internal">
        <lane id=":140_3_0" index="0" disallow="tram rail_urban rail rail_electric rail_fast ship" speed="13.89" length="14.40" shape="1524.19,1629.39 1526.39,1643.62"/>
    </edge>
    <edge id=":145_0" function="internal">
        <lane id=":145_0_0" index="0" disallow="tram rail_urban rail rail_electric rail_fast ship" speed="3.90" length="2.59" shape="1867.53,1368.59 1867.54,1369.30 1867.33,1369.84 1866.88,1370.22 1866.20,1370.43"/>
    </edge>
    <edge id=":147_0" function="internal">
        <lane id=":147_0_0" index="0" disallow="tram rail_urban rail rail_electric rail_fast ship" speed="3.91" length="2.53" shape="1873.38,1196.27 1873.37,1196.96 1873.15,1197.49 1872.71,1197.86 1872.05,1198.07"/>
    </edge>
    <edge id=":148_0" function="internal">
        <lane id=":148_0_0" index="0" disallow="tram rail_urban rail rail_electric rail_fast ship" speed="6.77" length="8.81" shape="1775.98,1445.45 1773.80,1445.78 1772.13,1446.82 1770.96,1448.57 1770.30,1451.02"/>
    </edge>
    <edge id=":148_1" function="internal">
        <lane id=":148_1_0" index="0" disallow="tram rail_urban rail rail_electric rail_fast ship" speed="13.89" length="11.26" shape="1775.98,1445.45 1764.71,1445.51"/>
    </edge>
    <edge id=":148_2" function="internal">
        <lane id=":148_2_0" index="0" disallow="tram rail_urban rail rail_electric rail_fast ship" speed="3.65" length="4.67" shape="1775.98,1445.45 1774.78,1444.64 1774.39,1443.83 1774.80,1443.04 1776.01,1442.25"/>
    </edge>
    <edge id=":148_3" function="internal">
        <lane id=":148_3_0" index="0" disallow="tram rail_urban rail rail_electric rail_fast ship" speed="13.89" length="12.00" shape="1764.61,1442.31 1767.67,1441.72 1769.97,1440.60 1772.45,1439.51 1776.04,1439.05"/>
    </edge>
    <edge id=":148_4" function="internal">
        <lane id=":148_4_0" index="0" disallow="tram rail_urban rail rail_electric rail_fast ship" speed="7.07" length="3.20" shape="1764.61,1442.31 1767.60,1442.77 1767.73,1442.88"/>
    </edge>
    <edge id=":148_5" function="internal">
        <lane id=":148_5_0" index="0" disallow="tram rail_urban rail rail_electric rail_fast ship" speed="3.65" length="1.44" shape="1764.61,1442.31 1765.84,1443.07"/>
    </edge>
    <edge id=":148_6" function="internal">
        <lane id=":148_6_0" index="0" disallow="tram rail_urban rail rail_electric rail_fast ship" speed="7.07" length="9.14" shape="1767.73,1442.88 1769.54,1444.38 1770.44,1447.13 1770.30,1451.02"/>
    </edge>
    <edge id=":148_7" function="internal">
        <lane id=":148_7_0" index="0" disallow="tram rail_urban rail rail_electric rail_fast ship" speed="3.65" length="3.23" shape="1765.84,1443.07 1766.26,1443.86 1765.89,1444.67 1764.71,1445.51"/>
    </edge>
    <edge id=":152_0" function="internal">
        <lane id=":152_0_0" index="0" disallow="tram rail_urban rail rail_electric rail_fast ship" speed="3.90" length="2.58" shape="357.61,1059.91 356.90,1059.91 356.36,1059.69 356.00,1059.24 355.80,1058.56"/>
    </edge>
    <edge id=":153_0" function="internal">
        <lane id=":153_0_0" index="0" disallow="tram rail_urban rail rail_electric rail_fast ship" speed="13.89" length="9.93" shape="515.82,1667.59 507.62,1661.99"/>
    </edge>
    <edge id=":153_1" function="internal">
        <lane id=":153_1_0" index="0" disallow="tram rail_urban rail rail_electric rail_fast ship" speed="6.73" length="3.63" shape="515.17,1660.88 513.32,1662.35 512.13,1662.78"/>
    </edge>
    <edge id=":153_2" function="internal">
        <lane id=":153_2_0" index="0" disallow="tram rail_urban rail rail_electric rail_fast ship" speed="6.73" length="4.77" shape="512.13,1662.78 511.44,1663.03 509.54,1662.91 507.62,1661.99"/>
    </edge>
    <edge id=":154_0" function="internal">
        <lane id=":154_0_0" index="0" disallow="tram rail_urban rail rail_electric rail_fast ship" speed="8.93" length="4.46" shape="535.65,1825.31 535.69,1829.78"/>
    </edge>
    <edge id=":156_0" function="internal">
        <lane id=":156_0_0" index="0" disallow="tram rail_urban rail rail_electric rail_fast ship" speed="6.51" length="9.03" shape="794.98,1706.15 794.27,1703.78 792.98,1702.20 791.09,1701.42 788.62,1701.44"/>
    </edge>
    <edge id=":156_1" function="internal">
        <lane id=":156_1_0" index="0" disallow="tram rail_urban rail rail_electric rail_fast ship" speed="3.65" length="1.44" shape="794.98,1706.15 795.60,1704.84"/>
    </edge>
    <edge id=":156_4" function="internal">
        <lane id=":156_4_0" index="0" disallow="tram rail_urban rail rail_electric rail_fast ship" speed="3.65" length="3.23" shape="795.60,1704.84 796.33,1704.33 797.18,1704.60 798.15,1705.67"/>
    </edge>
    <edge id=":156_2" function="internal">
        <lane id=":156_2_0" index="0" disallow="tram rail_urban rail rail_electric rail_fast ship" speed="13.89" length="11.20" shape="796.49,1694.60 798.15,1705.67"/>
    </edge>
    <edge id=":156_3" function="internal">
        <lane id=":156_3_0" index="0" disallow="tram rail_urban rail rail_electric rail_fast ship" speed="7.33" length="7.46" shape="796.49,1694.60 796.31,1697.10 794.94,1699.08 792.72,1700.33"/>
    </edge>
    <edge id=":156_5" function="internal">
        <lane id=":156_5_0" index="0" disallow="tram rail_urban rail rail_electric rail_fast ship" speed="7.33" length="4.26" shape="792.72,1700.33 792.37,1700.52 788.62,1701.44"/>
    </edge>
    <edge id=":160_0" function="internal">
        <lane id=":160_0_0" index="0" disallow="tram rail_urban rail rail_electric rail_fast ship" speed="6.53" length="8.93" shape="842.52,1152.65 843.24,1155.00 844.53,1156.57 846.39,1157.37 848.81,1157.39"/>
    </edge>
    <edge id=":160_1" function="internal">
        <lane id=":160_1_0" index="0" disallow="tram rail_urban rail rail_electric rail_fast ship" speed="13.89" length="10.96" shape="837.95,1158.93 848.81,1157.39"/>
    </edge>
    <edge id=":161_0" function="internal">
        <lane id=":161_0_0" index="0" disallow="tram rail_urban rail rail_electric rail_fast ship" speed="6.53" length="8.95" shape="727.78,1229.94 728.47,1232.27 729.76,1233.83 731.63,1234.63 734.09,1234.66"/>
    </edge>
    <edge id=":161_1" function="internal">
        <lane id=":161_1_0" index="0" disallow="tram rail_urban rail rail_electric rail_fast ship" speed="13.89" length="11.06" shape="727.78,1229.94 729.45,1240.87"/>
    </edge>
    <edge id=":162_0" function="internal">
        <lane id=":162_0_0" index="0" disallow="tram rail_urban rail rail_electric rail_fast ship" speed="6.46" length="9.05" shape="677.14,1723.11 676.44,1720.70 675.16,1719.11 673.28,1718.34 670.81,1718.39"/>
    </edge>
    <edge id=":162_1" function="internal">
        <lane id=":162_1_0" index="0" disallow="tram rail_urban rail rail_electric rail_fast ship" speed="3.65" length="1.44" shape="677.14,1723.11 677.76,1721.81"/>
    </edge>
    <edge id=":162_6" function="internal">
        <lane id=":162_6_0" index="0" disallow="tram rail_urban rail rail_electric rail_fast ship" speed="3.65" length="3.23" shape="677.76,1721.81 678.50,1721.30 679.35,1721.59 680.30,1722.66"/>
    </edge>
    <edge id=":162_2" function="internal">
        <lane id=":162_2_0" index="0" disallow="tram rail_urban rail rail_electric rail_fast ship" speed="6.50" length="9.02" shape="685.10,1716.37 682.71,1717.05 681.12,1718.33 680.31,1720.20 680.30,1722.66"/>
    </edge>
    <edge id=":162_3" function="internal">
        <lane id=":162_3_0" index="0" disallow="tram rail_urban rail rail_electric rail_fast ship" speed="13.89" length="14.43" shape="685.10,1716.37 670.81,1718.39"/>
    </edge>
    <edge id=":162_4" function="internal">
        <lane id=":162_4_0" index="0" disallow="tram rail_urban rail rail_electric rail_fast ship" speed="22.22" length="11.25" shape="678.72,1711.53 680.30,1722.66"/>
    </edge>
    <edge id=":162_5" function="internal">
        <lane id=":162_5_0" index="0" disallow="tram rail_urban rail rail_electric rail_fast ship" speed="7.37" length="7.47" shape="678.72,1711.53 678.52,1713.99 677.14,1715.95 674.88,1717.24"/>
    </edge>
    <edge id=":162_7" function="internal">
        <lane id=":162_7_0" index="0" disallow="tram rail_urban rail rail_electric rail_fast ship" speed="7.37" length="4.25" shape="674.88,1717.24 674.57,1717.42 670.81,1718.39"/>
    </edge>
    <edge id=":163_0" function="internal">
        <lane id=":163_0_0" index="0" disallow="tram rail_urban rail rail_electric rail_fast ship" speed="13.89" length="0.10" shape="582.70,1299.87 582.70,1299.87"/>
    </edge>
    <edge id=":164_0" function="internal">
        <lane id=":164_0_0" index="0" disallow="tram rail_urban rail rail_electric rail_fast ship" speed="13.89" length="0.29" shape="786.28,1228.00 786.57,1227.96"/>
    </edge>
    <edge id=":165_0" function="internal">
        <lane id=":165_0_0" index="0" disallow="tram rail_urban rail rail_electric rail_fast ship" speed="6.51" length="9.02" shape="876.24,1159.36 876.24,1156.89 877.03,1155.01 878.61,1153.72 880.98,1153.02"/>
    </edge>
    <edge id=":165_1" function="internal">
        <lane id=":165_1_0" index="0" disallow="tram rail_urban rail rail_electric rail_fast ship" speed="13.89" length="11.16" shape="869.92,1154.55 880.98,1153.02"/>
    </edge>
    <edge id=":166_0" function="internal">
        <lane id=":166_0_0" index="0" disallow="tram rail_urban rail rail_electric rail_fast ship" speed="6.81" length="9.47" shape="648.35,1018.54 645.86,1019.28 644.15,1020.61 643.21,1022.56 643.06,1025.10"/>
    </edge>
    <edge id=":166_1" function="internal">
        <lane id=":166_1_0" index="0" disallow="tram rail_urban rail rail_electric rail_fast ship" speed="13.89" length="11.51" shape="648.35,1018.54 636.96,1020.19"/>
    </edge>
    <edge id=":166_2" function="internal">
        <lane id=":166_2_0" index="0" disallow="tram rail_urban rail rail_electric rail_fast ship" speed="3.65" length="1.44" shape="648.35,1018.54 647.04,1017.93"/>
    </edge>
    <edge id=":166_9" function="internal">
        <lane id=":166_9_0" index="0" disallow="tram rail_urban rail rail_electric rail_fast ship" speed="3.65" length="3.23" shape="647.04,1017.93 646.53,1017.20 646.80,1016.35 647.87,1015.38"/>
    </edge>
    <edge id=":166_3" function="internal">
        <lane id=":166_3_0" index="0" disallow="tram rail_urban rail rail_electric rail_fast ship" speed="6.43" length="9.03" shape="641.63,1010.60 642.26,1013.01 643.51,1014.60 645.38,1015.39 647.87,1015.38"/>
    </edge>
    <edge id=":166_4" function="internal">
        <lane id=":166_4_0" index="0" disallow="tram rail_urban rail rail_electric rail_fast ship" speed="13.89" length="14.57" shape="641.63,1010.60 643.06,1025.10"/>
    </edge>
    <edge id=":166_5" function="internal">
        <lane id=":166_5_0" index="0" disallow="tram rail_urban rail rail_electric rail_fast ship" speed="7.44" length="11.96" shape="641.63,1010.60 641.72,1014.51 640.97,1017.41 639.39,1019.31 636.96,1020.19"/>
    </edge>
    <edge id=":166_6" function="internal">
        <lane id=":166_6_0" index="0" disallow="tram rail_urban rail rail_electric rail_fast ship" speed="13.89" length="11.46" shape="636.53,1017.02 647.87,1015.38"/>
    </edge>
    <edge id=":166_7" function="internal">
        <lane id=":166_7_0" index="0" disallow="tram rail_urban rail rail_electric rail_fast ship" speed="7.22" length="2.59" shape="636.53,1017.02 639.12,1017.23"/>
    </edge>
    <edge id=":166_8" function="internal">
        <lane id=":166_8_0" index="0" disallow="tram rail_urban rail rail_electric rail_fast ship" speed="3.65" length="1.44" shape="636.53,1017.02 637.83,1017.66"/>
    </edge>
    <edge id=":166_10" function="internal">
        <lane id=":166_10_0" index="0" disallow="tram rail_urban rail rail_electric rail_fast ship" speed="7.22" length="9.23" shape="639.12,1017.23 641.07,1018.65 642.38,1021.27 643.06,1025.10"/>
    </edge>
    <edge id=":166_11" function="internal">