<?xml version="1.0" encoding="UTF-8"?>

<!-- generated on 2022-08-23 15:57:12 by Eclipse SUMO netconvert Version 1.12.0
<configuration xmlns:xsi="http://www.w3.org/2001/XMLSchema-instance" xsi:noNamespaceSchemaLocation="http://sumo.dlr.de/xsd/netconvertConfiguration.xsd">

    <input>
        <sumo-net-file value="/home/svadlmat/UTC/utc/data/maps/sumo/Chodov.net.xml"/>
    </input>

    <output>
        <output-file value="/home/svadlmat/UTC/utc/data/maps/sumo/test1.net.xml"/>
    </output>

    <processing>
        <geometry.min-radius.fix.railways value="false"/>
        <geometry.max-grade.fix value="false"/>
        <offset.disable-normalization value="true"/>
        <lefthand value="false"/>
    </processing>

    <edge_removal>
        <keep-edges.explicit value="68,24,15,179,82,141,142,162,163,119,168,26,75,8,79,146,138,178,55,136,107,139,170,56,4,106,21,44,145,132,70,137,166,165,175,174,48,108,171,6,69,102,2,67,157,66,140,7,173,147,164,91,105,169,144,31,154,83,101,135,148,43,3,9,133,153,103,167,47,41"/>
    </edge_removal>

    <junctions>
        <no-turnarounds value="true"/>
        <junctions.corner-detail value="5"/>
        <junctions.limit-turn-speed value="5.5"/>
        <rectangular-lane-cut value="false"/>
    </junctions>

    <pedestrian>
        <walkingareas value="false"/>
    </pedestrian>

    <report>
        <aggregate-warnings value="5"/>
    </report>

</configuration>
-->

<net version="1.9" junctionCornerDetail="5" limitTurnSpeed="5.50" xmlns:xsi="http://www.w3.org/2001/XMLSchema-instance" xsi:noNamespaceSchemaLocation="http://sumo.dlr.de/xsd/net_file.xsd">

    <location netOffset="-464172.98,-5542009.12" convBoundary="21.99,151.05,1358.10,748.01" origBoundary="14.498404,50.026590,14.520810,50.038591" projParameter="+proj=utm +zone=33 +ellps=WGS84 +datum=WGS84 +units=m +no_defs"/>

    <type id="highway.bridleway" priority="1" numLanes="1" speed="2.78" allow="pedestrian" oneway="1" width="2.00"/>
    <type id="highway.bus_guideway" priority="1" numLanes="1" speed="27.78" allow="bus" oneway="1"/>
    <type id="highway.cycleway" priority="1" numLanes="1" speed="8.33" allow="bicycle" oneway="0" width="1.00"/>
    <type id="highway.footway" priority="1" numLanes="1" speed="2.78" allow="pedestrian" oneway="1" width="2.00"/>
    <type id="highway.ford" priority="1" numLanes="1" speed="2.78" allow="army" oneway="0"/>
    <type id="highway.living_street" priority="2" numLanes="1" speed="2.78" disallow="tram rail_urban rail rail_electric rail_fast ship" oneway="0"/>
    <type id="highway.motorway" priority="14" numLanes="2" speed="39.44" allow="private emergency authority army vip passenger hov taxi bus coach delivery truck trailer motorcycle evehicle custom1 custom2" oneway="1"/>
    <type id="highway.motorway_link" priority="9" numLanes="1" speed="22.22" allow="private emergency authority army vip passenger hov taxi bus coach delivery truck trailer motorcycle evehicle custom1 custom2" oneway="1"/>
    <type id="highway.path" priority="1" numLanes="1" speed="2.78" allow="pedestrian bicycle" oneway="0" width="2.00"/>
    <type id="highway.pedestrian" priority="1" numLanes="1" speed="2.78" allow="pedestrian" oneway="1" width="2.00"/>
    <type id="highway.primary" priority="12" numLanes="2" speed="27.78" disallow="tram rail_urban rail rail_electric rail_fast ship" oneway="0"/>
    <type id="highway.primary_link" priority="7" numLanes="1" speed="22.22" disallow="tram rail_urban rail rail_electric rail_fast ship" oneway="0"/>
    <type id="highway.raceway" priority="15" numLanes="2" speed="83.33" allow="vip" oneway="0"/>
    <type id="highway.residential" priority="3" numLanes="1" speed="13.89" disallow="tram rail_urban rail rail_electric rail_fast ship" oneway="0"/>
    <type id="highway.secondary" priority="11" numLanes="1" speed="27.78" disallow="tram rail_urban rail rail_electric rail_fast ship" oneway="0"/>
    <type id="highway.secondary_link" priority="6" numLanes="1" speed="22.22" disallow="tram rail_urban rail rail_electric rail_fast ship" oneway="0"/>
    <type id="highway.service" priority="1" numLanes="1" speed="5.56" allow="pedestrian delivery bicycle" oneway="0"/>
    <type id="highway.stairs" priority="1" numLanes="1" speed="1.39" allow="pedestrian" oneway="1" width="2.00"/>
    <type id="highway.step" priority="1" numLanes="1" speed="1.39" allow="pedestrian" oneway="1" width="2.00"/>
    <type id="highway.steps" priority="1" numLanes="1" speed="1.39" allow="pedestrian" oneway="1" width="2.00"/>
    <type id="highway.tertiary" priority="10" numLanes="1" speed="22.22" disallow="tram rail_urban rail rail_electric rail_fast ship" oneway="0"/>
    <type id="highway.tertiary_link" priority="5" numLanes="1" speed="22.22" disallow="tram rail_urban rail rail_electric rail_fast ship" oneway="0"/>
    <type id="highway.track" priority="1" numLanes="1" speed="5.56" allow="pedestrian motorcycle moped bicycle" oneway="0"/>
    <type id="highway.trunk" priority="13" numLanes="2" speed="27.78" disallow="pedestrian bicycle tram rail_urban rail rail_electric rail_fast ship" oneway="0"/>
    <type id="highway.trunk_link" priority="8" numLanes="1" speed="22.22" disallow="pedestrian bicycle tram rail_urban rail rail_electric rail_fast ship" oneway="0"/>
    <type id="highway.unclassified" priority="4" numLanes="1" speed="13.89" disallow="tram rail_urban rail rail_electric rail_fast ship" oneway="0"/>
    <type id="highway.unsurfaced" priority="1" numLanes="1" speed="8.33" disallow="tram rail_urban rail rail_electric rail_fast ship" oneway="0"/>
    <type id="railway.highspeed" priority="21" numLanes="1" speed="69.44" allow="rail_fast" oneway="1"/>
    <type id="railway.light_rail" priority="19" numLanes="1" speed="27.78" allow="rail_urban" oneway="1"/>
    <type id="railway.preserved" priority="16" numLanes="1" speed="27.78" allow="rail" oneway="1"/>
    <type id="railway.rail" priority="20" numLanes="1" speed="44.44" allow="rail" oneway="1"/>
    <type id="railway.subway" priority="18" numLanes="1" speed="27.78" allow="rail_urban" oneway="1"/>
    <type id="railway.tram" priority="17" numLanes="1" speed="13.89" allow="tram" oneway="1"/>

    <edge id=":11_0" function="internal">
        <lane id=":11_0_0" index="0" disallow="tram rail_urban rail rail_electric rail_fast ship" speed="13.89" length="0.21" shape="1028.57,605.65 1028.77,605.72"/>
    </edge>
    <edge id=":15_0" function="internal">
        <lane id=":15_0_0" index="0" disallow="tram rail_urban rail rail_electric rail_fast ship" speed="6.02" length="9.30" shape="739.93,526.73 739.44,529.11 740.07,530.89 741.81,532.04 744.65,532.59"/>
    </edge>
    <edge id=":15_1" function="internal">
        <lane id=":15_1_0" index="0" disallow="tram rail_urban rail rail_electric rail_fast ship" speed="8.27" length="11.06" shape="739.93,526.73 738.29,530.47 736.69,533.14 735.12,534.73 733.58,535.26"/>
    </edge>
    <edge id=":15_2" function="internal">
        <lane id=":15_2_0" index="0" disallow="tram rail_urban rail rail_electric rail_fast ship" speed="13.89" length="11.06" shape="733.61,532.06 744.65,532.59"/>
    </edge>
    <edge id=":15_3" function="internal">
        <lane id=":15_3_0" index="0" disallow="tram rail_urban rail rail_electric rail_fast ship" speed="3.65" length="4.67" shape="733.61,532.06 734.80,532.87 735.20,533.67 734.79,534.47 733.58,535.26"/>
    </edge>
    <edge id=":16_0" function="internal">
        <lane id=":16_0_0" index="0" disallow="tram rail_urban rail rail_electric rail_fast ship" speed="3.90" length="2.57" shape="778.89,424.53 779.54,424.79 779.95,425.20 780.12,425.76 780.05,426.46"/>
    </edge>
    <edge id=":18_0" function="internal">
        <lane id=":18_0_0" index="0" disallow="tram rail_urban rail rail_electric rail_fast ship" speed="6.23" length="2.55" shape="577.10,439.18 577.19,436.63"/>
    </edge>
    <edge id=":18_1" function="internal">
        <lane id=":18_1_0" index="0" disallow="tram rail_urban rail rail_electric rail_fast ship" speed="3.65" length="1.44" shape="577.10,439.18 577.70,437.87"/>
    </edge>
    <edge id=":18_4" function="internal">
        <lane id=":18_4_0" index="0" disallow="tram rail_urban rail rail_electric rail_fast ship" speed="6.23" length="7.96" shape="577.19,436.63 578.42,435.06 580.79,434.49 584.30,434.89"/>
    </edge>
    <edge id=":18_5" function="internal">
        <lane id=":18_5_0" index="0" disallow="tram rail_urban rail rail_electric rail_fast ship" speed="3.65" length="3.23" shape="577.70,437.87 578.43,437.35 579.28,437.62 580.26,438.68"/>
    </edge>
    <edge id=":18_2" function="internal">
        <lane id=":18_2_0" index="0" disallow="tram rail_urban rail rail_electric rail_fast ship" speed="7.24" length="7.67" shape="578.68,430.31 579.31,431.91 580.46,433.21 582.12,434.20 584.30,434.89"/>
    </edge>
    <edge id=":18_3" function="internal">
        <lane id=":18_3_0" index="0" disallow="tram rail_urban rail rail_electric rail_fast ship" speed="13.89" length="8.52" shape="578.68,430.31 580.26,438.68"/>
    </edge>
    <edge id=":19_0" function="internal">
        <lane id=":19_0_0" index="0" disallow="tram rail_urban rail rail_electric rail_fast ship" speed="3.90" length="2.59" shape="659.37,451.48 660.08,451.53 660.63,451.34 661.03,450.92 661.28,450.25"/>
    </edge>
    <edge id=":2_0" function="internal">
        <lane id=":2_0_0" index="0" disallow="tram rail_urban rail rail_electric rail_fast ship" speed="13.89" length="0.10" shape="545.41,288.29 545.43,288.37"/>
    </edge>
    <edge id=":20_0" function="internal">
        <lane id=":20_0_0" index="0" disallow="tram rail_urban rail rail_electric rail_fast ship" speed="3.90" length="2.72" shape="673.17,395.65 673.43,394.94 673.85,394.51 674.44,394.35 675.18,394.46"/>
    </edge>
    <edge id=":23_0" function="internal">
        <lane id=":23_0_0" index="0" disallow="tram rail_urban rail rail_electric rail_fast ship" speed="13.89" length="0.10" shape="344.32,472.10 344.42,472.13"/>
    </edge>
    <edge id=":32_0" function="internal">
        <lane id=":32_0_0" index="0" disallow="tram rail_urban rail rail_electric rail_fast ship" speed="13.89" length="7.54" shape="558.77,238.32 557.03,239.72 555.62,240.42 554.27,241.17 552.71,242.71"/>
    </edge>
    <edge id=":38_0" function="internal">
        <lane id=":38_0_0" index="0" disallow="tram rail_urban rail rail_electric rail_fast ship" speed="13.89" length="0.27" shape="542.23,677.11 542.50,677.14"/>
    </edge>
    <edge id=":39_0" function="internal">
        <lane id=":39_0_0" index="0" disallow="tram rail_urban rail rail_electric rail_fast ship" speed="6.54" length="9.09" shape="684.75,680.20 686.68,681.78 688.66,682.38 690.67,681.99 692.72,680.60"/>
    </edge>
    <edge id=":39_1" function="internal">
        <lane id=":39_1_0" index="0" disallow="tram rail_urban rail rail_electric rail_fast ship" speed="3.65" length="1.44" shape="684.75,680.20 684.97,681.62"/>
    </edge>
    <edge id=":39_4" function="internal">
        <lane id=":39_4_0" index="0" disallow="tram rail_urban rail rail_electric rail_fast ship" speed="3.65" length="3.23" shape="684.97,681.62 684.65,682.46 683.79,682.71 682.39,682.37"/>
    </edge>
    <edge id=":39_2" function="internal">
        <lane id=":39_2_0" index="0" disallow="tram rail_urban rail rail_electric rail_fast ship" speed="6.48" length="9.03" shape="682.02,690.25 683.61,688.35 684.20,686.41 683.80,684.41 682.39,682.37"/>
    </edge>
    <edge id=":39_3" function="internal">
        <lane id=":39_3_0" index="0" disallow="tram rail_urban rail rail_electric rail_fast ship" speed="13.89" length="14.41" shape="682.02,690.25 692.72,680.60"/>
    </edge>
    <edge id=":40_0" function="internal">
        <lane id=":40_0_0" index="0" disallow="tram rail_urban rail rail_electric rail_fast ship" speed="8.33" length="13.01" shape="609.54,686.16 611.62,699.00"/>
    </edge>
    <edge id=":40_1" function="internal">
        <lane id=":40_1_0" index="0" disallow="tram rail_urban rail rail_electric rail_fast ship" speed="3.65" length="4.67" shape="609.54,686.16 608.92,687.47 608.19,687.98 607.34,687.70 606.38,686.62"/>
    </edge>
    <edge id=":40_2" function="internal">
        <lane id=":40_2_0" index="0" disallow="tram rail_urban rail rail_electric rail_fast ship" speed="5.77" length="9.16" shape="601.08,691.21 603.75,691.62 605.52,690.99 606.40,689.32 606.38,686.62"/>
    </edge>
    <edge id=":40_3" function="internal">
        <lane id=":40_3_0" index="0" disallow="tram rail_urban rail rail_electric rail_fast ship" speed="9.79" length="13.69" shape="601.08,691.21 605.32,692.76 608.50,694.58 610.60,696.66 611.62,699.00"/>
    </edge>
    <edge id=":41_0" function="internal">
        <lane id=":41_0_0" index="0" disallow="tram rail_urban rail rail_electric rail_fast ship" speed="3.90" length="2.87" shape="104.62,686.66 104.43,687.44 104.56,688.06 104.99,688.52 105.74,688.81"/>
    </edge>
    <edge id=":42_0" function="internal">
        <lane id=":42_0_0" index="0" disallow="tram rail_urban rail rail_electric rail_fast ship" speed="13.89" length="0.10" shape="135.63,625.31 135.68,625.23"/>
    </edge>
    <edge id=":43_0" function="internal">
        <lane id=":43_0_0" index="0" disallow="tram rail_urban rail rail_electric rail_fast ship" speed="6.59" length="8.84" shape="160.31,585.88 159.91,588.19 160.35,590.13 161.64,591.71 163.77,592.93"/>
    </edge>
    <edge id=":43_1" function="internal">
        <lane id=":43_1_0" index="0" disallow="tram rail_urban rail rail_electric rail_fast ship" speed="13.89" length="10.89" shape="160.31,585.88 159.35,588.85 158.56,591.05 157.54,593.15 155.87,595.76"/>
    </edge>
    <edge id=":44_0" function="internal">
        <lane id=":44_0_0" index="0" disallow="tram rail_urban rail rail_electric rail_fast ship" speed="13.89" length="0.28" shape="186.14,509.19 186.05,509.45"/>
    </edge>
    <edge id=":45_0" function="internal">
        <lane id=":45_0_0" index="0" disallow="tram rail_urban rail rail_electric rail_fast ship" speed="13.89" length="10.96" shape="208.96,425.46 219.30,429.11"/>
    </edge>
    <edge id=":45_1" function="internal">
        <lane id=":45_1_0" index="0" disallow="tram rail_urban rail rail_electric rail_fast ship" speed="6.51" length="8.87" shape="208.96,425.46 211.10,426.61 212.38,428.18 212.79,430.14 212.34,432.52"/>
    </edge>
    <edge id=":48_0" function="internal">
        <lane id=":48_0_0" index="0" disallow="tram rail_urban rail rail_electric rail_fast ship" speed="3.90" length="2.58" shape="377.09,575.54 376.40,575.43 375.83,575.57 375.40,575.96 375.09,576.60"/>
    </edge>
    <edge id=":49_0" function="internal">
        <lane id=":49_0_0" index="0" disallow="tram rail_urban rail rail_electric rail_fast ship" speed="6.14" length="9.06" shape="415.46,579.33 414.87,581.81 415.28,583.75 416.69,585.14 419.09,585.98"/>
    </edge>
    <edge id=":49_1" function="internal">
        <lane id=":49_1_0" index="0" disallow="tram rail_urban rail rail_electric rail_fast ship" speed="13.89" length="13.26" shape="415.46,579.33 414.19,582.57 413.09,585.52 412.07,588.50 411.04,591.82"/>
    </edge>
    <edge id=":49_2" function="internal">
        <lane id=":49_2_0" index="0" disallow="tram rail_urban rail rail_electric rail_fast ship" speed="8.08" length="3.61" shape="415.46,579.33 413.69,582.31 413.58,582.39"/>
    </edge>
    <edge id=":49_3" function="internal">
        <lane id=":49_3_0" index="0" disallow="tram rail_urban rail rail_electric rail_fast ship" speed="3.65" length="1.44" shape="415.46,579.33 414.28,580.15"/>
    </edge>
    <edge id=":49_8" function="internal">
        <lane id=":49_8_0" index="0" disallow="tram rail_urban rail rail_electric rail_fast ship" speed="8.08" length="10.00" shape="413.58,582.39 411.23,584.07 408.07,584.61 404.22,583.92"/>
    </edge>
    <edge id=":49_9" function="internal">
        <lane id=":49_9_0" index="0" disallow="tram rail_urban rail rail_electric rail_fast ship" speed="3.65" length="3.23" shape="414.28,580.15 413.39,580.23 412.79,579.56 412.49,578.15"/>
    </edge>
    <edge id=":49_4" function="internal">
        <lane id=":49_4_0" index="0" disallow="tram rail_urban rail rail_electric rail_fast ship" speed="6.54" length="9.03" shape="407.97,590.92 408.33,588.48 407.82,586.49 406.45,584.98 404.22,583.92"/>
    </edge>
    <edge id=":49_5" function="internal">
        <lane id=":49_5_0" index="0" disallow="tram rail_urban rail rail_electric rail_fast ship" speed="13.89" length="13.55" shape="407.97,590.92 409.02,587.56 410.07,584.48 411.21,581.43 412.49,578.15"/>
    </edge>
    <edge id=":49_6" function="internal">
        <lane id=":49_6_0" index="0" disallow="tram rail_urban rail rail_electric rail_fast ship" speed="8.10" length="3.33" shape="407.97,590.92 409.41,588.09 409.53,587.99"/>
    </edge>
    <edge id=":49_7" function="internal">
        <lane id=":49_7_0" index="0" disallow="tram rail_urban rail rail_electric rail_fast ship" speed="3.65" length="1.44" shape="407.97,590.92 409.08,589.99"/>
    </edge>
    <edge id=":49_10" function="internal">
        <lane id=":49_10_0" index="0" disallow="tram rail_urban rail rail_electric rail_fast ship" speed="8.10" length="10.21" shape="409.53,587.99 411.75,586.32 414.97,585.62 419.09,585.98"/>
    </edge>
    <edge id=":49_11" function="internal">
        <lane id=":49_11_0" index="0" disallow="tram rail_urban rail rail_electric rail_fast ship" speed="3.65" length="3.23" shape="409.08,589.99 409.96,589.84 410.61,590.45 411.04,591.82"/>
    </edge>
    <edge id=":50_0" function="internal">
        <lane id=":50_0_0" index="0" disallow="tram rail_urban rail rail_electric rail_fast ship" speed="6.53" length="8.17" shape="450.98,502.15 448.79,501.89 446.96,502.34 445.49,503.52 444.38,505.42"/>
    </edge>
    <edge id=":50_1" function="internal">
        <lane id=":50_1_0" index="0" disallow="tram rail_urban rail rail_electric rail_fast ship" speed="3.65" length="1.44" shape="450.98,502.15 450.02,501.07"/>
    </edge>
    <edge id=":50_6" function="internal">
        <lane id=":50_6_0" index="0" disallow="tram rail_urban rail rail_electric rail_fast ship" speed="3.65" length="3.23" shape="450.02,501.07 449.84,500.19 450.43,499.52 451.79,499.05"/>
    </edge>
    <edge id=":50_2" function="internal">
        <lane id=":50_2_0" index="0" disallow="tram rail_urban rail rail_electric rail_fast ship" speed="13.89" length="12.98" shape="439.26,495.67 451.79,499.05"/>
    </edge>
    <edge id=":50_3" function="internal">
        <lane id=":50_3_0" index="0" disallow="tram rail_urban rail rail_electric rail_fast ship" speed="7.35" length="9.06" shape="439.26,495.67 442.66,497.13 444.65,499.24 445.15,501.65"/>
    </edge>
    <edge id=":50_7" function="internal">
        <lane id=":50_7_0" index="0" disallow="tram rail_urban rail rail_electric rail_fast ship" speed="7.35" length="3.88" shape="445.15,501.65 445.22,502.00 444.38,505.42"/>
    </edge>
    <edge id=":50_4" function="internal">
        <lane id=":50_4_0" index="0" disallow="tram rail_urban rail rail_electric rail_fast ship" speed="8.04" length="12.84" shape="441.42,504.19 443.18,501.21 445.49,499.36 448.36,498.64 451.79,499.05"/>
    </edge>
    <edge id=":50_5" function="internal">
        <lane id=":50_5_0" index="0" disallow="tram rail_urban rail rail_electric rail_fast ship" speed="3.65" length="4.67" shape="441.42,504.19 442.62,503.39 443.51,503.32 444.10,504.00 444.38,505.42"/>
    </edge>
    <edge id=":51_0" function="internal">
        <lane id=":51_0_0" index="0" disallow="tram rail_urban rail rail_electric rail_fast ship" speed="13.89" length="11.20" shape="353.09,647.35 349.77,658.05"/>
    </edge>
    <edge id=":51_1" function="internal">
        <lane id=":51_1_0" index="0" disallow="tram rail_urban rail rail_electric rail_fast ship" speed="6.36" length="4.24" shape="345.88,651.30 348.21,652.21 349.44,653.43"/>
    </edge>
    <edge id=":51_2" function="internal">
        <lane id=":51_2_0" index="0" disallow="tram rail_urban rail rail_electric rail_fast ship" speed="6.36" length="4.80" shape="349.44,653.43 349.64,653.63 350.16,655.58 349.77,658.05"/>
    </edge>
    <edge id=":52_0" function="internal">
        <lane id=":52_0_0" index="0" disallow="tram rail_urban rail rail_electric rail_fast ship" speed="6.16" length="9.05" shape="392.51,654.67 392.14,657.19 392.72,659.08 394.24,660.35 396.70,661.00"/>
    </edge>
    <edge id=":52_1" function="internal">
        <lane id=":52_1_0" index="0" disallow="tram rail_urban rail rail_electric rail_fast ship" speed="13.89" length="11.67" shape="392.51,654.67 389.37,665.91"/>
    </edge>
    <edge id=":52_2" function="internal">
        <lane id=":52_2_0" index="0" disallow="tram rail_urban rail rail_electric rail_fast ship" speed="3.65" length="1.44" shape="392.51,654.67 391.40,655.59"/>
    </edge>
    <edge id=":52_6" function="internal">
        <lane id=":52_6_0" index="0" disallow="tram rail_urban rail rail_electric rail_fast ship" speed="3.65" length="3.23" shape="391.40,655.59 390.52,655.75 389.86,655.14 389.44,653.76"/>
    </edge>
    <edge id=":52_3" function="internal">
        <lane id=":52_3_0" index="0" disallow="tram rail_urban rail rail_electric rail_fast ship" speed="13.89" length="11.81" shape="386.27,665.14 389.44,653.76"/>
    </edge>
    <edge id=":52_4" function="internal">
        <lane id=":52_4_0" index="0" disallow="tram rail_urban rail rail_electric rail_fast ship" speed="7.85" length="2.65" shape="386.27,665.14 387.40,662.94 387.54,662.84"/>
    </edge>
    <edge id=":52_5" function="internal">
        <lane id=":52_5_0" index="0" disallow="tram rail_urban rail rail_electric rail_fast ship" speed="3.65" length="1.44" shape="386.27,665.14 387.33,664.17"/>
    </edge>
    <edge id=":52_7" function="internal">
        <lane id=":52_7_0" index="0" disallow="tram rail_urban rail rail_electric rail_fast ship" speed="7.85" length="9.63" shape="387.54,662.84 389.51,661.52 392.62,660.87 396.70,661.00"/>
    </edge>
    <edge id=":52_8" function="internal">
        <lane id=":52_8_0" index="0" disallow="tram rail_urban rail rail_electric rail_fast ship" speed="3.65" length="3.23" shape="387.33,664.17 388.20,663.97 388.88,664.55 389.37,665.91"/>
    </edge>
    <edge id=":53_0" function="internal">
        <lane id=":53_0_0" index="0" disallow="tram rail_urban rail rail_electric rail_fast ship" speed="6.18" length="9.05" shape="371.03,729.41 370.68,731.93 371.26,733.82 372.78,735.10 375.23,735.77"/>
    </edge>
    <edge id=":53_1" function="internal">
        <lane id=":53_1_0" index="0" disallow="tram rail_urban rail rail_electric rail_fast ship" speed="3.65" length="1.44" shape="371.03,729.41 369.93,730.34"/>
    </edge>
    <edge id=":53_4" function="internal">
        <lane id=":53_4_0" index="0" disallow="tram rail_urban rail rail_electric rail_fast ship" speed="3.65" length="3.23" shape="369.93,730.34 369.05,730.50 368.39,729.89 367.96,728.52"/>
    </edge>
    <edge id=":53_2" function="internal">
        <lane id=":53_2_0" index="0" disallow="tram rail_urban rail rail_electric rail_fast ship" speed="7.08" length="9.82" shape="360.84,733.78 363.29,733.76 365.29,732.88 366.85,731.13 367.96,728.52"/>
    </edge>
    <edge id=":53_3" function="internal">
        <lane id=":53_3_0" index="0" disallow="tram rail_urban rail rail_electric rail_fast ship" speed="13.89" length="14.53" shape="360.84,733.78 375.23,735.77"/>
    </edge>
    <edge id=":54_0" function="internal">
        <lane id=":54_0_0" index="0" disallow="tram rail_urban rail rail_electric rail_fast ship" speed="6.20" length="9.05" shape="329.07,722.89 328.65,725.39 329.18,727.31 330.65,728.65 333.08,729.39"/>
    </edge>
    <edge id=":54_1" function="internal">
        <lane id=":54_1_0" index="0" disallow="tram rail_urban rail rail_electric rail_fast ship" speed="13.89" length="11.81" shape="321.39,727.74 333.08,729.39"/>
    </edge>
    <edge id=":59_0" function="internal">
        <lane id=":59_0_0" index="0" disallow="tram rail_urban rail rail_electric rail_fast ship" speed="13.89" length="0.29" shape="1116.16,632.38 1116.44,632.47"/>
    </edge>
    <edge id=":60_0" function="internal">
        <lane id=":60_0_0" index="0" disallow="tram rail_urban rail rail_electric rail_fast ship" speed="3.90" length="2.57" shape="840.62,714.76 841.15,715.22 841.70,715.40 842.28,715.30 842.87,714.92"/>
    </edge>
    <edge id=":61_0" function="internal">
        <lane id=":61_0_0" index="0" disallow="tram rail_urban rail rail_electric rail_fast ship" speed="13.89" length="0.30" shape="859.73,700.43 859.96,700.23"/>
    </edge>
    <edge id=":62_0" function="internal">
        <lane id=":62_0_0" index="0" disallow="tram rail_urban rail rail_electric rail_fast ship" speed="13.89" length="0.29" shape="919.09,648.91 919.31,648.72"/>
    </edge>
    <edge id=":63_0" function="internal">
        <lane id=":63_0_0" index="0" disallow="tram rail_urban rail rail_electric rail_fast ship" speed="13.89" length="8.15" shape="980.59,588.41 988.15,591.46"/>
    </edge>
    <edge id=":63_1" function="internal">
        <lane id=":63_1_0" index="0" disallow="tram rail_urban rail rail_electric rail_fast ship" speed="7.54" length="7.41" shape="981.35,593.47 983.15,592.18 984.89,591.42 986.55,591.18 988.15,591.46"/>
    </edge>
    <edge id=":64_0" function="internal">
        <lane id=":64_0_0" index="0" disallow="tram rail_urban rail rail_electric rail_fast ship" speed="6.50" length="9.03" shape="765.13,619.46 763.50,621.33 762.86,623.26 763.22,625.27 764.56,627.35"/>
    </edge>
    <edge id=":64_1" function="internal">
        <lane id=":64_1_0" index="0" disallow="tram rail_urban rail rail_electric rail_fast ship" speed="8.00" length="3.90" shape="765.13,619.46 761.85,621.56"/>
    </edge>
    <edge id=":64_2" function="internal">
        <lane id=":64_2_0" index="0" disallow="tram rail_urban rail rail_electric rail_fast ship" speed="3.65" length="1.44" shape="765.13,619.46 763.70,619.64"/>
    </edge>
    <edge id=":64_9" function="internal">
        <lane id=":64_9_0" index="0" disallow="tram rail_urban rail rail_electric rail_fast ship" speed="8.00" length="10.31" shape="761.85,621.56 758.69,622.11 755.64,621.10 752.71,618.53"/>
    </edge>
    <edge id=":64_10" function="internal">
        <lane id=":64_10_0" index="0" disallow="tram rail_urban rail rail_electric rail_fast ship" speed="3.65" length="3.23" shape="763.70,619.64 762.87,619.29 762.65,618.43 763.04,617.04"/>
    </edge>
    <edge id=":64_3" function="internal">
        <lane id=":64_3_0" index="0" disallow="tram rail_urban rail rail_electric rail_fast ship" speed="6.50" length="9.04" shape="755.14,616.45 757.00,618.08 758.94,618.72 760.95,618.37 763.04,617.04"/>
    </edge>
    <edge id=":64_4" function="internal">
        <lane id=":64_4_0" index="0" disallow="tram rail_urban rail rail_electric rail_fast ship" speed="13.89" length="14.41" shape="755.14,616.45 764.56,627.35"/>
    </edge>
    <edge id=":64_5" function="internal">
        <lane id=":64_5_0" index="0" disallow="tram rail_urban rail rail_electric rail_fast ship" speed="3.65" length="4.67" shape="755.14,616.45 755.32,617.88 754.97,618.70 754.10,618.92 752.71,618.53"/>
    </edge>
    <edge id=":64_6" function="internal">
        <lane id=":64_6_0" index="0" disallow="tram rail_urban rail rail_electric rail_fast ship" speed="6.60" length="9.11" shape="752.28,626.55 753.85,624.65 754.44,622.68 754.07,620.64 752.71,618.53"/>
    </edge>
    <edge id=":64_7" function="internal">
        <lane id=":64_7_0" index="0" disallow="tram rail_urban rail rail_electric rail_fast ship" speed="13.89" length="14.36" shape="752.28,626.55 763.04,617.04"/>
    </edge>
    <edge id=":64_8" function="internal">
        <lane id=":64_8_0" index="0" disallow="tram rail_urban rail rail_electric rail_fast ship" speed="7.92" length="10.21" shape="752.28,626.55 755.47,624.40 758.59,623.82 761.62,624.80"/>
    </edge>
    <edge id=":64_11" function="internal">
        <lane id=":64_11_0" index="0" disallow="tram rail_urban rail rail_electric rail_fast ship" speed="7.92" length="3.90" shape="761.62,624.80 764.56,627.35"/>
    </edge>
    <edge id=":65_0" function="internal">
        <lane id=":65_0_0" index="0" disallow="tram rail_urban rail rail_electric rail_fast ship" speed="7.38" length="16.28" shape="686.33,540.41 684.98,535.95 685.76,532.84 688.65,531.07 693.66,530.66"/>
    </edge>
    <edge id=":65_1" function="internal">
        <lane id=":65_1_0" index="0" disallow="tram rail_urban rail rail_electric rail_fast ship" speed="3.66" length="4.72" shape="686.33,540.41 686.74,539.01 687.39,538.39 688.28,538.54 689.41,539.46"/>
    </edge>
    <edge id=":65_2" function="internal">
        <lane id=":65_2_0" index="0" disallow="tram rail_urban rail rail_electric rail_fast ship" speed="5.74" length="9.27" shape="693.52,533.86 690.69,534.09 689.06,535.11 688.64,536.90 689.41,539.46"/>
    </edge>
    <edge id=":65_3" function="internal">
        <lane id=":65_3_0" index="0" disallow="tram rail_urban rail rail_electric rail_fast ship" speed="3.65" length="1.44" shape="693.52,533.86 692.35,533.00"/>
    </edge>
    <edge id=":65_6" function="internal">
        <lane id=":65_6_0" index="0" disallow="tram rail_urban rail rail_electric rail_fast ship" speed="3.65" length="3.23" shape="692.35,533.00 691.99,532.19 692.42,531.41 693.66,530.66"/>
    </edge>
    <edge id=":65_4" function="internal">
        <lane id=":65_4_0" index="0" disallow="tram rail_urban rail rail_electric rail_fast ship" speed="13.89" length="15.92" shape="677.75,529.84 693.66,530.66"/>
    </edge>
    <edge id=":65_5" function="internal">
        <lane id=":65_5_0" index="0" disallow="tram rail_urban rail rail_electric rail_fast ship" speed="10.59" length="11.47" shape="677.75,529.84 681.25,530.61 684.36,532.47 687.08,535.42 687.21,535.64"/>
    </edge>
    <edge id=":65_7" function="internal">