<?xml version="1.0" encoding="UTF-8"?>

<!-- generated on 2022-07-20 13:03:29 by Eclipse SUMO netconvert Version 1.9.2
<configuration xmlns:xsi="http://www.w3.org/2001/XMLSchema-instance" xsi:noNamespaceSchemaLocation="http://sumo.dlr.de/xsd/netconvertConfiguration.xsd">

    <input>
        <sumo-net-file value="\\wsl$\Ubuntu\home\svadlmat\UTC\Project/Maps/sumo/Chodov.net.xml"/>
    </input>

    <output>
        <output-file value="\\wsl$\Ubuntu\home\svadlmat\UTC\Project/Maps/sumo/test.net.xml"/>
    </output>

    <processing>
        <geometry.min-radius.fix.railways value="false"/>
        <geometry.max-grade.fix value="false"/>
        <offset.disable-normalization value="true"/>
        <lefthand value="false"/>
    </processing>

    <edge_removal>
        <keep-edges.explicit value="154,8,133,91,44,67,132,43,7,55,105,125,3,180,137,153,145,106,163,108,144,168,136,79,165,167,86,48,107,146,166,162,4,47,102,9,101,103,56,60,75,81,160,181,147,170,179,41,74,6,164,169,148,135"/>
    </edge_removal>

    <junctions>
        <no-turnarounds value="true"/>
        <junctions.corner-detail value="5"/>
        <junctions.limit-turn-speed value="5.5"/>
        <rectangular-lane-cut value="false"/>
    </junctions>

    <pedestrian>
        <walkingareas value="false"/>
    </pedestrian>

    <report>
        <aggregate-warnings value="5"/>
    </report>

</configuration>
-->

<net version="1.9" junctionCornerDetail="5" limitTurnSpeed="5.50" xmlns:xsi="http://www.w3.org/2001/XMLSchema-instance" xsi:noNamespaceSchemaLocation="http://sumo.dlr.de/xsd/net_file.xsd">

    <location netOffset="-464172.98,-5542009.12" convBoundary="21.99,151.05,844.57,763.75" origBoundary="14.498404,50.026590,14.520810,50.038591" projParameter="+proj=utm +zone=33 +ellps=WGS84 +datum=WGS84 +units=m +no_defs"/>

    <type id="highway.bridleway" priority="1" numLanes="1" speed="2.78" allow="pedestrian" oneway="1" width="2.00"/>
    <type id="highway.bus_guideway" priority="1" numLanes="1" speed="27.78" allow="bus" oneway="1"/>
    <type id="highway.cycleway" priority="1" numLanes="1" speed="8.33" allow="bicycle" oneway="0" width="1.00"/>
    <type id="highway.footway" priority="1" numLanes="1" speed="2.78" allow="pedestrian" oneway="1" width="2.00"/>
    <type id="highway.ford" priority="1" numLanes="1" speed="2.78" allow="army" oneway="0"/>
    <type id="highway.living_street" priority="2" numLanes="1" speed="2.78" disallow="tram rail_urban rail rail_electric rail_fast ship" oneway="0"/>
    <type id="highway.motorway" priority="14" numLanes="2" speed="39.44" allow="private emergency authority army vip passenger hov taxi bus coach delivery truck trailer motorcycle evehicle custom1 custom2" oneway="1"/>
    <type id="highway.motorway_link" priority="9" numLanes="1" speed="22.22" allow="private emergency authority army vip passenger hov taxi bus coach delivery truck trailer motorcycle evehicle custom1 custom2" oneway="1"/>
    <type id="highway.path" priority="1" numLanes="1" speed="2.78" allow="pedestrian bicycle" oneway="0" width="2.00"/>
    <type id="highway.pedestrian" priority="1" numLanes="1" speed="2.78" allow="pedestrian" oneway="1" width="2.00"/>
    <type id="highway.primary" priority="12" numLanes="2" speed="27.78" disallow="tram rail_urban rail rail_electric rail_fast ship" oneway="0"/>
    <type id="highway.primary_link" priority="7" numLanes="1" speed="22.22" disallow="tram rail_urban rail rail_electric rail_fast ship" oneway="0"/>
    <type id="highway.raceway" priority="15" numLanes="2" speed="83.33" allow="vip" oneway="0"/>
    <type id="highway.residential" priority="3" numLanes="1" speed="13.89" disallow="tram rail_urban rail rail_electric rail_fast ship" oneway="0"/>
    <type id="highway.secondary" priority="11" numLanes="1" speed="27.78" disallow="tram rail_urban rail rail_electric rail_fast ship" oneway="0"/>
    <type id="highway.secondary_link" priority="6" numLanes="1" speed="22.22" disallow="tram rail_urban rail rail_electric rail_fast ship" oneway="0"/>
    <type id="highway.service" priority="1" numLanes="1" speed="5.56" allow="pedestrian delivery bicycle" oneway="0"/>
    <type id="highway.stairs" priority="1" numLanes="1" speed="1.39" allow="pedestrian" oneway="1" width="2.00"/>
    <type id="highway.step" priority="1" numLanes="1" speed="1.39" allow="pedestrian" oneway="1" width="2.00"/>
    <type id="highway.steps" priority="1" numLanes="1" speed="1.39" allow="pedestrian" oneway="1" width="2.00"/>
    <type id="highway.tertiary" priority="10" numLanes="1" speed="22.22" disallow="tram rail_urban rail rail_electric rail_fast ship" oneway="0"/>
    <type id="highway.tertiary_link" priority="5" numLanes="1" speed="22.22" disallow="tram rail_urban rail rail_electric rail_fast ship" oneway="0"/>
    <type id="highway.track" priority="1" numLanes="1" speed="5.56" allow="pedestrian motorcycle moped bicycle" oneway="0"/>
    <type id="highway.trunk" priority="13" numLanes="2" speed="27.78" disallow="pedestrian bicycle tram rail_urban rail rail_electric rail_fast ship" oneway="0"/>
    <type id="highway.trunk_link" priority="8" numLanes="1" speed="22.22" disallow="pedestrian bicycle tram rail_urban rail rail_electric rail_fast ship" oneway="0"/>
    <type id="highway.unclassified" priority="4" numLanes="1" speed="13.89" disallow="tram rail_urban rail rail_electric rail_fast ship" oneway="0"/>
    <type id="highway.unsurfaced" priority="1" numLanes="1" speed="8.33" disallow="tram rail_urban rail rail_electric rail_fast ship" oneway="0"/>
    <type id="railway.highspeed" priority="21" numLanes="1" speed="69.44" allow="rail_fast" oneway="1"/>
    <type id="railway.light_rail" priority="19" numLanes="1" speed="27.78" allow="rail_urban" oneway="1"/>
    <type id="railway.preserved" priority="16" numLanes="1" speed="27.78" allow="rail" oneway="1"/>
    <type id="railway.rail" priority="20" numLanes="1" speed="44.44" allow="rail" oneway="1"/>
    <type id="railway.subway" priority="18" numLanes="1" speed="27.78" allow="rail_urban" oneway="1"/>
    <type id="railway.tram" priority="17" numLanes="1" speed="13.89" allow="tram" oneway="1"/>

    <edge id=":15_0" function="internal">
        <lane id=":15_0_0" index="0" disallow="tram rail_urban rail rail_electric rail_fast ship" speed="13.89" length="3.10" shape="737.41,532.09 740.50,532.30"/>
    </edge>
    <edge id=":18_0" function="internal">
        <lane id=":18_0_0" index="0" disallow="tram rail_urban rail rail_electric rail_fast ship" speed="13.89" length="0.10" shape="579.65,434.82 579.67,434.91"/>
    </edge>
    <edge id=":2_0" function="internal">
        <lane id=":2_0_0" index="0" disallow="tram rail_urban rail rail_electric rail_fast ship" speed="13.89" length="0.10" shape="545.41,288.29 545.43,288.37"/>
    </edge>
    <edge id=":23_0" function="internal">
        <lane id=":23_0_0" index="0" disallow="tram rail_urban rail rail_electric rail_fast ship" speed="13.89" length="0.10" shape="344.32,472.10 344.42,472.13"/>
    </edge>
    <edge id=":32_0" function="internal">
        <lane id=":32_0_0" index="0" disallow="tram rail_urban rail rail_electric rail_fast ship" speed="13.89" length="7.54" shape="558.77,238.32 557.03,239.72 555.62,240.42 554.27,241.17 552.71,242.71"/>
    </edge>
    <edge id=":38_0" function="internal">
        <lane id=":38_0_0" index="0" disallow="tram rail_urban rail rail_electric rail_fast ship" speed="6.51" length="8.85" shape="548.90,681.24 546.48,681.25 544.63,682.03 543.34,683.57 542.62,685.88"/>
    </edge>
    <edge id=":38_1" function="internal">
        <lane id=":38_1_0" index="0" disallow="tram rail_urban rail rail_electric rail_fast ship" speed="7.12" length="7.27" shape="538.48,676.70 540.81,677.50 542.28,679.30 542.80,681.72"/>
    </edge>
    <edge id=":38_2" function="internal">
        <lane id=":38_2_0" index="0" disallow="tram rail_urban rail rail_electric rail_fast ship" speed="7.12" length="4.18" shape="542.80,681.72 542.88,682.09 542.62,685.88"/>
    </edge>
    <edge id=":39_0" function="internal">
        <lane id=":39_0_0" index="0" disallow="tram rail_urban rail rail_electric rail_fast ship" speed="13.89" length="9.41" shape="693.04,684.64 686.05,690.94"/>
    </edge>
    <edge id=":39_1" function="internal">
        <lane id=":39_1_0" index="0" disallow="tram rail_urban rail rail_electric rail_fast ship" speed="6.11" length="7.78" shape="693.04,684.64 690.87,686.34 689.01,687.23 687.48,687.30 686.26,686.56"/>
    </edge>
    <edge id=":39_2" function="internal">
        <lane id=":39_2_0" index="0" disallow="tram rail_urban rail rail_electric rail_fast ship" speed="6.07" length="1.14" shape="688.61,684.39 689.12,685.40"/>
    </edge>
    <edge id=":39_3" function="internal">
        <lane id=":39_3_0" index="0" disallow="tram rail_urban rail rail_electric rail_fast ship" speed="3.65" length="1.18" shape="688.61,684.39 688.79,685.56"/>
    </edge>
    <edge id=":39_4" function="internal">
        <lane id=":39_4_0" index="0" disallow="tram rail_urban rail rail_electric rail_fast ship" speed="6.07" length="6.66" shape="689.12,685.40 689.25,685.67 689.04,687.19 687.97,688.95 686.05,690.94"/>
    </edge>
    <edge id=":39_5" function="internal">
        <lane id=":39_5_0" index="0" disallow="tram rail_urban rail rail_electric rail_fast ship" speed="3.65" length="3.49" shape="688.79,685.56 688.83,685.81 688.52,686.65 687.66,686.90 686.26,686.56"/>
    </edge>
    <edge id=":40_0" function="internal">
        <lane id=":40_0_0" index="0" disallow="tram rail_urban rail rail_electric rail_fast ship" speed="6.72" length="6.10" shape="608.54,699.88 608.05,698.37 607.23,697.16 606.10,696.23 604.64,695.61"/>
    </edge>
    <edge id=":40_1" function="internal">
        <lane id=":40_1_0" index="0" disallow="tram rail_urban rail rail_electric rail_fast ship" speed="5.55" length="4.58" shape="610.49,692.69 610.40,694.70 609.39,695.85 608.37,696.01"/>
    </edge>
    <edge id=":40_2" function="internal">
        <lane id=":40_2_0" index="0" disallow="tram rail_urban rail rail_electric rail_fast ship" speed="5.55" length="3.79" shape="608.37,696.01 607.47,696.16 604.64,695.61"/>
    </edge>
    <edge id=":41_0" function="internal">
        <lane id=":41_0_0" index="0" disallow="tram rail_urban rail rail_electric rail_fast ship" speed="3.90" length="2.87" shape="104.62,686.66 104.43,687.44 104.56,688.06 104.99,688.52 105.74,688.81"/>
    </edge>
    <edge id=":42_0" function="internal">
        <lane id=":42_0_0" index="0" disallow="tram rail_urban rail rail_electric rail_fast ship" speed="13.89" length="10.89" shape="138.72,620.80 132.84,629.97"/>
    </edge>
    <edge id=":42_1" function="internal">
        <lane id=":42_1_0" index="0" disallow="tram rail_urban rail rail_electric rail_fast ship" speed="3.65" length="2.60" shape="138.72,620.80 137.38,621.34 136.50,621.22 136.37,620.99"/>
    </edge>
    <edge id=":42_4" function="internal">
        <lane id=":42_4_0" index="0" disallow="tram rail_urban rail rail_electric rail_fast ship" speed="3.65" length="2.08" shape="136.37,620.99 136.06,620.44 136.08,619.00"/>
    </edge>
    <edge id=":42_2" function="internal">
        <lane id=":42_2_0" index="0" disallow="tram rail_urban rail rail_electric rail_fast ship" speed="6.93" length="8.58" shape="128.36,620.55 130.81,621.23 132.91,621.19 134.67,620.45 136.08,619.00"/>
    </edge>
    <edge id=":42_3" function="internal">
        <lane id=":42_3_0" index="0" disallow="tram rail_urban rail rail_electric rail_fast ship" speed="7.10" length="7.77" shape="128.36,620.55 131.72,622.35 133.58,624.51 133.74,625.60"/>
    </edge>
    <edge id=":42_5" function="internal">
        <lane id=":42_5_0" index="0" disallow="tram rail_urban rail rail_electric rail_fast ship" speed="7.10" length="4.59" shape="133.74,625.60 133.96,627.06 132.84,629.97"/>
    </edge>
    <edge id=":43_0" function="internal">
        <lane id=":43_0_0" index="0" disallow="tram rail_urban rail rail_electric rail_fast ship" speed="8.77" length="16.40" shape="163.01,577.75 161.42,583.61 161.02,588.10 161.81,591.20 163.77,592.93"/>
    </edge>
    <edge id=":43_1" function="internal">
        <lane id=":43_1_0" index="0" disallow="tram rail_urban rail rail_electric rail_fast ship" speed="13.89" length="18.75" shape="163.01,577.75 161.69,581.89 160.11,586.70 158.29,591.39 156.27,595.19"/>
    </edge>
    <edge id=":43_2" function="internal">
        <lane id=":43_2_0" index="0" disallow="tram rail_urban rail rail_electric rail_fast ship" speed="7.70" length="3.21" shape="153.63,593.38 155.18,592.01 156.29,591.75"/>
    </edge>
    <edge id=":43_3" function="internal">
        <lane id=":43_3_0" index="0" disallow="tram rail_urban rail rail_electric rail_fast ship" speed="3.65" length="2.14" shape="153.63,593.38 154.97,592.84 155.65,592.94"/>
    </edge>
    <edge id=":43_4" function="internal">
        <lane id=":43_4_0" index="0" disallow="tram rail_urban rail rail_electric rail_fast ship" speed="7.70" length="7.71" shape="156.29,591.75 157.39,591.48 160.25,591.79 163.77,592.93"/>
    </edge>
    <edge id=":43_5" function="internal">
        <lane id=":43_5_0" index="0" disallow="tram rail_urban rail rail_electric rail_fast ship" speed="3.65" length="2.54" shape="155.65,592.94 155.85,592.96 156.29,593.75 156.27,595.19"/>
    </edge>
    <edge id=":44_0" function="internal">
        <lane id=":44_0_0" index="0" disallow="tram rail_urban rail rail_electric rail_fast ship" speed="13.89" length="11.23" shape="187.40,505.52 183.63,516.10"/>
    </edge>
    <edge id=":44_1" function="internal">
        <lane id=":44_1_0" index="0" disallow="tram rail_urban rail rail_electric rail_fast ship" speed="6.53" length="9.08" shape="187.40,505.52 186.27,507.73 184.70,509.04 182.68,509.46 180.23,508.99"/>
    </edge>
    <edge id=":45_0" function="internal">
        <lane id=":45_0_0" index="0" disallow="tram rail_urban rail rail_electric rail_fast ship" speed="13.89" length="10.96" shape="208.96,425.46 219.30,429.11"/>
    </edge>
    <edge id=":45_1" function="internal">
        <lane id=":45_1_0" index="0" disallow="tram rail_urban rail rail_electric rail_fast ship" speed="6.51" length="8.87" shape="208.96,425.46 211.10,426.61 212.38,428.18 212.79,430.14 212.34,432.52"/>
    </edge>
    <edge id=":46_0" function="internal">
        <lane id=":46_0_0" index="0" disallow="tram rail_urban rail rail_electric rail_fast ship" speed="3.90" length="2.60" shape="115.14,486.78 114.44,486.65 113.87,486.77 113.43,487.15 113.11,487.79"/>
    </edge>
    <edge id=":48_0" function="internal">
        <lane id=":48_0_0" index="0" disallow="tram rail_urban rail rail_electric rail_fast ship" speed="3.90" length="2.58" shape="377.09,575.54 376.40,575.43 375.83,575.57 375.40,575.96 375.09,576.60"/>
    </edge>
    <edge id=":49_0" function="internal">
        <lane id=":49_0_0" index="0" disallow="tram rail_urban rail rail_electric rail_fast ship" speed="6.14" length="9.06" shape="415.46,579.33 414.87,581.81 415.28,583.75 416.69,585.14 419.09,585.98"/>
    </edge>
    <edge id=":49_1" function="internal">
        <lane id=":49_1_0" index="0" disallow="tram rail_urban rail rail_electric rail_fast ship" speed="13.89" length="13.26" shape="415.46,579.33 414.19,582.57 413.09,585.52 412.07,588.50 411.04,591.82"/>
    </edge>
    <edge id=":49_2" function="internal">
        <lane id=":49_2_0" index="0" disallow="tram rail_urban rail rail_electric rail_fast ship" speed="8.08" length="9.52" shape="415.46,579.33 413.69,582.31 411.23,584.07 408.25,584.58"/>
    </edge>
    <edge id=":49_6" function="internal">
        <lane id=":49_6_0" index="0" disallow="tram rail_urban rail rail_electric rail_fast ship" speed="8.08" length="4.09" shape="408.25,584.58 408.07,584.61 404.22,583.92"/>
    </edge>
    <edge id=":49_3" function="internal">
        <lane id=":49_3_0" index="0" disallow="tram rail_urban rail rail_electric rail_fast ship" speed="6.54" length="9.03" shape="407.97,590.92 408.33,588.48 407.82,586.49 406.45,584.98 404.22,583.92"/>
    </edge>
    <edge id=":49_4" function="internal">
        <lane id=":49_4_0" index="0" disallow="tram rail_urban rail rail_electric rail_fast ship" speed="8.10" length="5.06" shape="407.97,590.92 409.41,588.09 410.91,586.95"/>
    </edge>
    <edge id=":49_5" function="internal">
        <lane id=":49_5_0" index="0" disallow="tram rail_urban rail rail_electric rail_fast ship" speed="3.65" length="2.34" shape="407.97,590.92 409.08,589.99 409.96,589.84"/>
    </edge>
    <edge id=":49_7" function="internal">
        <lane id=":49_7_0" index="0" disallow="tram rail_urban rail rail_electric rail_fast ship" speed="8.10" length="8.49" shape="410.91,586.95 411.75,586.32 414.97,585.62 419.09,585.98"/>
    </edge>
    <edge id=":49_8" function="internal">
        <lane id=":49_8_0" index="0" disallow="tram rail_urban rail rail_electric rail_fast ship" speed="3.65" length="2.34" shape="409.96,589.84 410.61,590.45 411.04,591.82"/>
    </edge>
    <edge id=":50_0" function="internal">
        <lane id=":50_0_0" index="0" disallow="tram rail_urban rail rail_electric rail_fast ship" speed="6.53" length="8.17" shape="450.98,502.15 448.79,501.89 446.96,502.34 445.49,503.52 444.38,505.42"/>
    </edge>
    <edge id=":50_1" function="internal">
        <lane id=":50_1_0" index="0" disallow="tram rail_urban rail rail_electric rail_fast ship" speed="3.65" length="2.34" shape="450.98,502.15 450.02,501.07 449.84,500.19"/>
    </edge>
    <edge id=":50_4" function="internal">
        <lane id=":50_4_0" index="0" disallow="tram rail_urban rail rail_electric rail_fast ship" speed="3.65" length="2.34" shape="449.84,500.19 450.43,499.52 451.79,499.05"/>
    </edge>
    <edge id=":50_2" function="internal">
        <lane id=":50_2_0" index="0" disallow="tram rail_urban rail rail_electric rail_fast ship" speed="13.89" length="9.75" shape="442.37,496.53 451.79,499.05"/>
    </edge>
    <edge id=":50_3" function="internal">
        <lane id=":50_3_0" index="0" disallow="tram rail_urban rail rail_electric rail_fast ship" speed="6.69" length="6.49" shape="442.37,496.53 444.41,497.61 445.43,499.46 445.42,501.53"/>
    </edge>
    <edge id=":50_5" function="internal">
        <lane id=":50_5_0" index="0" disallow="tram rail_urban rail rail_electric rail_fast ship" speed="6.69" length="4.04" shape="445.42,501.53 445.42,502.06 444.38,505.42"/>
    </edge>
    <edge id=":51_0" function="internal">
        <lane id=":51_0_0" index="0" disallow="tram rail_urban rail rail_electric rail_fast ship" speed="13.89" length="11.20" shape="353.09,647.35 349.77,658.05"/>
    </edge>
    <edge id=":51_1" function="internal">
        <lane id=":51_1_0" index="0" disallow="tram rail_urban rail rail_electric rail_fast ship" speed="6.36" length="4.33" shape="345.88,651.30 348.21,652.21 349.51,653.50"/>
    </edge>
    <edge id=":51_2" function="internal">
        <lane id=":51_2_0" index="0" disallow="tram rail_urban rail rail_electric rail_fast ship" speed="6.36" length="4.71" shape="349.51,653.50 349.64,653.63 350.16,655.58 349.77,658.05"/>
    </edge>
    <edge id=":52_0" function="internal">
        <lane id=":52_0_0" index="0" disallow="tram rail_urban rail rail_electric rail_fast ship" speed="6.16" length="9.05" shape="392.51,654.67 392.14,657.19 392.72,659.08 394.24,660.35 396.70,661.00"/>
    </edge>
    <edge id=":52_1" function="internal">
        <lane id=":52_1_0" index="0" disallow="tram rail_urban rail rail_electric rail_fast ship" speed="13.89" length="11.67" shape="392.51,654.67 389.37,665.91"/>
    </edge>
    <edge id=":52_2" function="internal">
        <lane id=":52_2_0" index="0" disallow="tram rail_urban rail rail_electric rail_fast ship" speed="3.65" length="2.34" shape="392.51,654.67 391.40,655.59 390.52,655.75"/>
    </edge>
    <edge id=":52_6" function="internal">
        <lane id=":52_6_0" index="0" disallow="tram rail_urban rail rail_electric rail_fast ship" speed="3.65" length="2.34" shape="390.52,655.75 389.86,655.14 389.44,653.76"/>
    </edge>
    <edge id=":52_3" function="internal">
        <lane id=":52_3_0" index="0" disallow="tram rail_urban rail rail_electric rail_fast ship" speed="13.89" length="11.81" shape="386.27,665.14 389.44,653.76"/>
    </edge>
    <edge id=":52_4" function="internal">
        <lane id=":52_4_0" index="0" disallow="tram rail_urban rail rail_electric rail_fast ship" speed="7.85" length="4.17" shape="386.27,665.14 387.40,662.94 388.80,661.99"/>
    </edge>
    <edge id=":52_5" function="internal">
        <lane id=":52_5_0" index="0" disallow="tram rail_urban rail rail_electric rail_fast ship" speed="3.65" length="2.34" shape="386.27,665.14 387.33,664.17 388.20,663.97"/>
    </edge>
    <edge id=":52_7" function="internal">
        <lane id=":52_7_0" index="0" disallow="tram rail_urban rail rail_electric rail_fast ship" speed="7.85" length="8.11" shape="388.80,661.99 389.51,661.52 392.62,660.87 396.70,661.00"/>
    </edge>
    <edge id=":52_8" function="internal">
        <lane id=":52_8_0" index="0" disallow="tram rail_urban rail rail_electric rail_fast ship" speed="3.65" length="2.34" shape="388.20,663.97 388.88,664.55 389.37,665.91"/>
    </edge>
    <edge id=":53_0" function="internal">
        <lane id=":53_0_0" index="0" disallow="tram rail_urban rail rail_electric rail_fast ship" speed="6.18" length="9.05" shape="371.03,729.41 370.68,731.93 371.26,733.82 372.78,735.10 375.23,735.77"/>
    </edge>
    <edge id=":53_1" function="internal">
        <lane id=":53_1_0" index="0" disallow="tram rail_urban rail rail_electric rail_fast ship" speed="3.65" length="2.53" shape="371.03,729.41 369.93,730.34 369.05,730.50 368.91,730.37"/>
    </edge>
    <edge id=":53_4" function="internal">
        <lane id=":53_4_0" index="0" disallow="tram rail_urban rail rail_electric rail_fast ship" speed="3.65" length="2.15" shape="368.91,730.37 368.39,729.89 367.96,728.52"/>
    </edge>
    <edge id=":53_2" function="internal">
        <lane id=":53_2_0" index="0" disallow="tram rail_urban rail rail_electric rail_fast ship" speed="7.08" length="9.82" shape="360.84,733.78 363.29,733.76 365.29,732.88 366.85,731.13 367.96,728.52"/>
    </edge>
    <edge id=":53_3" function="internal">
        <lane id=":53_3_0" index="0" disallow="tram rail_urban rail rail_electric rail_fast ship" speed="13.89" length="14.53" shape="360.84,733.78 375.23,735.77"/>
    </edge>
    <edge id=":54_0" function="internal">
        <lane id=":54_0_0" index="0" disallow="tram rail_urban rail rail_electric rail_fast ship" speed="6.20" length="9.05" shape="329.07,722.89 328.65,725.39 329.18,727.31 330.65,728.65 333.08,729.39"/>
    </edge>
    <edge id=":54_1" function="internal">
        <lane id=":54_1_0" index="0" disallow="tram rail_urban rail rail_electric rail_fast ship" speed="13.89" length="11.81" shape="321.39,727.74 333.08,729.39"/>
    </edge>
    <edge id=":64_0" function="internal">
        <lane id=":64_0_0" index="0" disallow="tram rail_urban rail rail_electric rail_fast ship" speed="13.89" length="10.98" shape="765.03,619.54 756.79,626.79"/>
    </edge>
    <edge id=":64_1" function="internal">
        <lane id=":64_1_0" index="0" disallow="tram rail_urban rail rail_electric rail_fast ship" speed="6.52" length="4.24" shape="757.30,618.96 758.60,621.00 758.91,622.79"/>
    </edge>
    <edge id=":64_2" function="internal">
        <lane id=":64_2_0" index="0" disallow="tram rail_urban rail rail_electric rail_fast ship" speed="6.52" length="4.65" shape="758.91,622.79 758.94,622.99 758.34,624.91 756.79,626.79"/>
    </edge>
    <edge id=":65_0" function="internal">
        <lane id=":65_0_0" index="0" disallow="tram rail_urban rail rail_electric rail_fast ship" speed="13.89" length="8.93" shape="682.37,530.12 691.29,530.56"/>
    </edge>
    <edge id=":65_1" function="internal">
        <lane id=":65_1_0" index="0" disallow="tram rail_urban rail rail_electric rail_fast ship" speed="7.07" length="7.86" shape="682.37,530.12 684.16,530.53 685.66,531.50 686.85,533.04 687.74,535.15"/>
    </edge>
    <edge id=":78_0" function="internal">
        <lane id=":78_0_0" index="0" disallow="tram rail_urban rail rail_electric rail_fast ship" speed="13.89" length="6.27" shape="467.62,194.38 468.08,192.73 467.97,191.50 467.76,190.25 467.92,188.49"/>
        <lane id=":78_0_1" index="1" disallow="tram rail_urban rail rail_electric rail_fast ship" speed="13.89" length="6.27" shape="470.54,195.68 471.07,193.87 471.01,192.53 470.84,191.15 471.04,189.22"/>
    </edge>
    <edge id=":79_0" function="internal">
        <lane id=":79_0_0" index="0" disallow="tram rail_urban rail rail_electric rail_fast ship" speed="13.89" length="7.08" shape="490.90,159.95 492.54,158.55 493.46,157.33 494.43,156.19 496.21,155.04"/>
        <lane id=":79_0_1" index="1" disallow="tram rail_urban rail rail_electric rail_fast ship" speed="13.89" length="7.08" shape="492.70,162.60 494.22,161.27 495.06,160.10 495.95,159.01 497.61,157.92"/>
    </edge>
    <edge id=":8_0" function="internal">
        <lane id=":8_0_0" index="0" disallow="tram rail_urban rail rail_electric rail_fast ship" speed="6.44" length="9.04" shape="478.14,500.16 477.78,502.62 478.31,504.58 479.72,506.04 482.02,507.00"/>
    </edge>
    <edge id=":8_1" function="internal">
        <lane id=":8_1_0" index="0" disallow="tram rail_urban rail rail_electric rail_fast ship" speed="7.41" length="11.75" shape="478.14,500.16 476.71,503.79 474.94,506.18 472.82,507.33 470.36,507.26"/>
    </edge>
    <edge id=":8_2" function="internal">
        <lane id=":8_2_0" index="0" disallow="tram rail_urban rail rail_electric rail_fast ship" speed="13.89" length="11.21" shape="471.18,504.16 482.02,507.00"/>
    </edge>
    <edge id=":8_3" function="internal">
        <lane id=":8_3_0" index="0" disallow="tram rail_urban rail rail_electric rail_fast ship" speed="3.65" length="4.67" shape="471.18,504.16 472.13,505.24 472.32,506.12 471.73,506.79 470.36,507.26"/>
    </edge>
    <edge id=":80_0" function="internal">
        <lane id=":80_0_0" index="0" disallow="tram rail_urban rail rail_electric rail_fast ship" speed="13.89" length="0.39" shape="550.88,159.37 551.02,159.47 551.12,159.54 551.21,159.61 551.35,159.73"/>
        <lane id=":80_0_1" index="1" disallow="tram rail_urban rail rail_electric rail_fast ship" speed="13.89" length="0.39" shape="549.10,162.03 549.14,162.06 549.18,162.09 549.21,162.11 549.25,162.15"/>
    </edge>
    <edge id=":81_0" function="internal">
        <lane id=":81_0_0" index="0" disallow="tram rail_urban rail rail_electric rail_fast ship" speed="13.89" length="0.49" shape="564.19,172.78 564.32,172.96 564.41,173.08 564.49,173.21 564.59,173.39"/>
        <lane id=":81_0_1" index="1" disallow="tram rail_urban rail rail_electric rail_fast ship" speed="13.89" length="0.49" shape="561.65,174.73 561.69,174.79 561.72,174.83 561.75,174.87 561.78,174.93"/>
    </edge>
    <edge id=":82_0" function="internal">
        <lane id=":82_0_0" index="0" disallow="tram rail_urban rail rail_electric rail_fast ship" speed="13.89" length="0.56" shape="563.54,232.83 563.41,233.05 563.32,233.19 563.21,233.32 563.05,233.51"/>
        <lane id=":82_0_1" index="1" disallow="tram rail_urban rail rail_electric rail_fast ship" speed="13.89" length="0.56" shape="560.79,231.20 560.74,231.28 560.71,231.32 560.68,231.37 560.62,231.43"/>
    </edge>
    <edge id=":83_0" function="internal">
        <lane id=":83_0_0" index="0" disallow="tram rail_urban rail rail_electric rail_fast ship" speed="3.96" length="3.73" shape="620.76,749.23 619.82,749.83 619.08,749.88 618.52,749.38 618.16,748.32"/>
    </edge>
    <edge id=":84_0" function="internal">
        <lane id=":84_0_0" index="0" disallow="tram rail_urban rail rail_electric rail_fast ship" speed="7.00" length="8.85" shape="592.90,519.51 593.58,521.79 594.80,523.46 596.56,524.52 598.87,524.98"/>
    </edge>
    <edge id=":84_1" function="internal">
        <lane id=":84_1_0" index="0" disallow="tram rail_urban rail rail_electric rail_fast ship" speed="11.11" length="10.32" shape="592.90,519.51 594.30,529.74"/>
    </edge>
    <edge id=":84_2" function="internal">
        <lane id=":84_2_0" index="0" disallow="tram rail_urban rail rail_electric rail_fast ship" speed="13.89" length="10.39" shape="588.50,524.30 598.87,524.98"/>
    </edge>
    <edge id=":84_3" function="internal">
        <lane id=":84_3_0" index="0" disallow="tram rail_urban rail rail_electric rail_fast ship" speed="6.85" length="8.76" shape="588.50,524.30 590.85,524.78 592.59,525.85 593.75,527.50 594.30,529.74"/>
    </edge>
    <edge id=":85_0" function="internal">
        <lane id=":85_0_0" index="0" disallow="tram rail_urban rail rail_electric rail_fast ship" speed="3.91" length="3.08" shape="844.73,540.01 845.58,540.22 846.09,540.65 846.25,541.29 846.07,542.15"/>
    </edge>
    <edge id=":88_0" function="internal">
        <lane id=":88_0_0" index="0" disallow="tram rail_urban rail rail_electric rail_fast ship" speed="13.89" length="0.26" shape="396.09,484.74 396.34,484.79"/>
    </edge>
    <edge id=":90_0" function="internal">
        <lane id=":90_0_0" index="0" disallow="tram rail_urban rail rail_electric rail_fast ship" speed="13.89" length="0.30" shape="121.07,365.40 121.33,365.25"/>
        <lane id=":90_0_1" index="1" disallow="tram rail_urban rail rail_electric rail_fast ship" speed="13.89" length="0.30" shape="122.65,368.19 122.91,368.04"/>
    </edge>
    <edge id=":93_0" function="internal">
        <lane id=":93_0_0" index="0" disallow="tram rail_urban rail rail_electric rail_fast ship" speed="7.10" length="14.82" shape="607.61,601.83 605.00,601.61 603.30,603.41 602.50,607.23 602.59,613.06"/>
    </edge>
    <edge id=":93_1" function="internal">
        <lane id=":93_1_0" index="0" disallow="tram rail_urban rail rail_electric rail_fast ship" speed="3.65" length="4.67" shape="607.61,601.83 606.79,600.64 606.72,599.75 607.39,599.16 608.80,598.86"/>
    </edge>