<?xml version="1.0" ?>
<routes>
  <vType accel="3.0" decel="6.0" id="CarDefault" length="5.0" maxSpeed="50.0" minGap="2.5" sigma="0.5"/>

  <route edges="132 133 43 153 144 145 47 56 170 74" fromJunction="77" id="r230" toJunction="0"/>
  <route edges="154 41 40 39 38 9 160 161" fromJunction="3" id="r231" toJunction="33"/>
  <route edges="84 85 86 87 88 153 144 159" fromJunction="37" id="r232" toJunction="91"/>

  <vehicle depart="0.0" departLane="random" id="v32" route="r232" type="CarDefault"/>
  <vehicle depart="0.0" departLane="random" id="v33" route="r232" type="CarDefault"/>
  <vehicle depart="0.0" departLane="random" id="v34" route="r232" type="CarDefault"/>
  <vehicle depart="0.0" departLane="random" id="v35" route="r232" type="CarDefault"/>
  <vehicle depart="0.0" departLane="random" id="v36" route="r232" type="CarDefault"/>
  <vehicle depart="0.0" departLane="random" id="v37" route="r232" type="CarDefault"/>
  <vehicle depart="0.0" departLane="random" id="v38" route="r232" type="CarDefault"/>
  <vehicle depart="0.0" departLane="random" id="v39" route="r232" type="CarDefault"/>
  <vehicle depart="0.0" departLane="random" id="v40" route="r232" type="CarDefault"/>
  <vehicle depart="0.0" departLane="random" id="v41" route="r232" type="CarDefault"/>
  <vehicle depart="0.0" departLane="random" id="v42" route="r232" type="CarDefault"/>
  <vehicle depart="0.0" departLane="random" id="v43" route="r232" type="CarDefault"/>
  <vehicle depart="0.0" departLane="random" id="v44" route="r232" type="CarDefault"/>
  <vehicle depart="0.0" departLane="random" id="v45" route="r232" type="CarDefault"/>
  <vehicle depart="0.0" departLane="random" id="v46" route="r232" type="CarDefault"/>
  <vehicle depart="0.0" departLane="random" id="v47" route="r232" type="CarDefault"/>
  <vehicle depart="0.0" departLane="random" id="v48" route="r232" type="CarDefault"/>
  <vehicle depart="0.0" departLane="random" id="v49" route="r232" type="CarDefault"/>
  <vehicle depart="0.0" departLane="random" id="v50" route="r232" type="CarDefault"/>
  <vehicle depart="0.0" departLane="random" id="v51" route="r232" type="CarDefault"/>

  <vehicle depart="5.0" departLane="random" id="v15" route="r231" type="CarDefault"/>
  <vehicle depart="5.0" departLane="random" id="v16" route="r231" type="CarDefault"/>
  <vehicle depart="5.0" departLane="random" id="v17" route="r231" type="CarDefault"/>
  <vehicle depart="5.0" departLane="random" id="v18" route="r231" type="CarDefault"/>
  <vehicle depart="5.0" departLane="random" id="v19" route="r231" type="CarDefault"/>
  <vehicle depart="5.0" departLane="random" id="v20" route="r231" type="CarDefault"/>
  <vehicle depart="5.0" departLane="random" id="v21" route="r231" type="CarDefault"/>
  <vehicle depart="5.0" departLane="random" id="v22" route="r231" type="CarDefault"/>
  <vehicle depart="5.0" departLane="random" id="v23" route="r231" type="CarDefault"/>
  <vehicle depart="5.0" departLane="random" id="v24" route="r231" type="CarDefault"/>
  <vehicle depart="5.0" departLane="random" id="v25" route="r231" type="CarDefault"/>
  <vehicle depart="5.0" departLane="random" id="v26" route="r231" type="CarDefault"/>
  <vehicle depart="5.0" departLane="random" id="v27" route="r231" type="CarDefault"/>
  <vehicle depart="5.0" departLane="random" id="v28" route="r231" type="CarDefault"/>
  <vehicle depart="5.0" departLane="random" id="v29" route="r231" type="CarDefault"/>
  <vehicle depart="5.0" departLane="random" id="v30" route="r231" type="CarDefault"/>
  <vehicle depart="5.0" departLane="random" id="v31" route="r231" type="CarDefault"/>

  <vehicle depart="10.0" departLane="random" id="v0" route="r230" type="CarDefault"/>
  <vehicle depart="10.0" departLane="random" id="v1" route="r230" type="CarDefault"/>
  <vehicle depart="10.0" departLane="random" id="v2" route="r230" type="CarDefault"/>
  <vehicle depart="10.0" departLane="random" id="v3" route="r230" type="CarDefault"/>
  <vehicle depart="10.0" departLane="random" id="v4" route="r230" type="CarDefault"/>
  <vehicle depart="10.0" departLane="random" id="v5" route="r230" type="CarDefault"/>
  <vehicle depart="10.0" departLane="random" id="v6" route="r230" type="CarDefault"/>
  <vehicle depart="10.0" departLane="random" id="v7" route="r230" type="CarDefault"/>
  <vehicle depart="10.0" departLane="random" id="v8" route="r230" type="CarDefault"/>
  <vehicle depart="10.0" departLane="random" id="v9" route="r230" type="CarDefault"/>
  <vehicle depart="10.0" departLane="random" id="v10" route="r230" type="CarDefault"/>
  <vehicle depart="10.0" departLane="random" id="v11" route="r230" type="CarDefault"/>
  <vehicle depart="10.0" departLane="random" id="v12" route="r230" type="CarDefault"/>
  <vehicle depart="10.0" departLane="random" id="v13" route="r230" type="CarDefault"/>
  <vehicle depart="10.0" departLane="random" id="v14" route="r230" type="CarDefault"/>
  <vehicle depart="10.0" departLane="random" id="v85" route="r232" type="CarDefault"/>
  <vehicle depart="10.0" departLane="random" id="v86" route="r232" type="CarDefault"/>
  <vehicle depart="10.0" departLane="random" id="v87" route="r232" type="CarDefault"/>
  <vehicle depart="10.0" departLane="random" id="v88" route="r232" type="CarDefault"/>
  <vehicle depart="10.0" departLane="random" id="v89" route="r232" type="CarDefault"/>
  <vehicle depart="10.0" departLane="random" id="v90" route="r232" type="CarDefault"/>
  <vehicle depart="10.0" departLane="random" id="v91" route="r232" type="CarDefault"/>
  <vehicle depart="10.0" departLane="random" id="v92" route="r232" type="CarDefault"/>
  <vehicle depart="10.0" departLane="random" id="v93" route="r232" type="CarDefault"/>
  <vehicle depart="10.0" departLane="random" id="v94" route="r232" type="CarDefault"/>
  <vehicle depart="10.0" departLane="random" id="v95" route="r232" type="CarDefault"/>
  <vehicle depart="10.0" departLane="random" id="v96" route="r232" type="CarDefault"/>
  <vehicle depart="10.0" departLane="random" id="v97" route="r232" type="CarDefault"/>
  <vehicle depart="10.0" departLane="random" id="v98" route="r232" type="CarDefault"/>
  <vehicle depart="10.0" departLane="random" id="v99" route="r232" type="CarDefault"/>
  <vehicle depart="10.0" departLane="random" id="v100" route="r232" type="CarDefault"/>
  <vehicle depart="10.0" departLane="random" id="v101" route="r232" type="CarDefault"/>
  <vehicle depart="10.0" departLane="random" id="v102" route="r232" type="CarDefault"/>
  <vehicle depart="10.0" departLane="random" id="v103" route="r232" type="CarDefault"/>
  <vehicle depart="10.0" departLane="random" id="v104" route="r232" type="CarDefault"/>

  <vehicle depart="15.0" departLane="random" id="v72" route="r231" type="CarDefault"/>
  <vehicle depart="15.0" departLane="random" id="v73" route="r231" type="CarDefault"/>
  <vehicle depart="15.0" departLane="random" id="v74" route="r231" type="CarDefault"/>
  <vehicle depart="15.0" departLane="random" id="v75" route="r231" type="CarDefault"/>
  <vehicle depart="15.0" departLane="random" id="v76" route="r231" type="CarDefault"/>
  <vehicle depart="15.0" departLane="random" id="v77" route="r231" type="CarDefault"/>
  <vehicle depart="15.0" departLane="random" id="v78" route="r231" type="CarDefault"/>
  <vehicle depart="15.0" departLane="random" id="v79" route="r231" type="CarDefault"/>
  <vehicle depart="15.0" departLane="random" id="v80" route="r231" type="CarDefault"/>
  <vehicle depart="15.0" departLane="random" id="v81" route="r231" type="CarDefault"/>
  <vehicle depart="15.0" departLane="random" id="v82" route="r231" type="CarDefault"/>
  <vehicle depart="15.0" departLane="random" id="v83" route="r231" type="CarDefault"/>
  <vehicle depart="15.0" departLane="random" id="v84" route="r231" type="CarDefault"/>

  <vehicle depart="20.0" departLane="random" id="v52" route="r230" type="CarDefault"/>
  <vehicle depart="20.0" departLane="random" id="v53" route="r230" type="CarDefault"/>
  <vehicle depart="20.0" departLane="random" id="v54" route="r230" type="CarDefault"/>
  <vehicle depart="20.0" departLane="random" id="v55" route="r230" type="CarDefault"/>
  <vehicle depart="20.0" departLane="random" id="v56" route="r230" type="CarDefault"/>
  <vehicle depart="20.0" departLane="random" id="v57" route="r230" type="CarDefault"/>
  <vehicle depart="20.0" departLane="random" id="v58" route="r230" type="CarDefault"/>
  <vehicle depart="20.0" departLane="random" id="v59" route="r230" type="CarDefault"/>
  <vehicle depart="20.0" departLane="random" id="v60" route="r230" type="CarDefault"/>
  <vehicle depart="20.0" departLane="random" id="v61" route="r230" type="CarDefault"/>
  <vehicle depart="20.0" departLane="random" id="v62" route="r230" type="CarDefault"/>
  <vehicle depart="20.0" departLane="random" id="v63" route="r230" type="CarDefault"/>
  <vehicle depart="20.0" departLane="random" id="v64" route="r230" type="CarDefault"/>
  <vehicle depart="20.0" departLane="random" id="v65" route="r230" type="CarDefault"/>
  <vehicle depart="20.0" departLane="random" id="v66" route="r230" type="CarDefault"/>
  <vehicle depart="20.0" departLane="random" id="v67" route="r230" type="CarDefault"/>
  <vehicle depart="20.0" departLane="random" id="v68" route="r230" type="CarDefault"/>
  <vehicle depart="20.0" departLane="random" id="v69" route="r230" type="CarDefault"/>
  <vehicle depart="20.0" departLane="random" id="v70" route="r230" type="CarDefault"/>
  <vehicle depart="20.0" departLane="random" id="v71" route="r230" type="CarDefault"/>
  <vehicle depart="20.0" departLane="random" id="v150" route="r232" type="CarDefault"/>
  <vehicle depart="20.0" departLane="random" id="v151" route="r232" type="CarDefault"/>
  <vehicle depart="20.0" departLane="random" id="v152" route="r232" type="CarDefault"/>
  <vehicle depart="20.0" departLane="random" id="v153" route="r232" type="CarDefault"/>
  <vehicle depart="20.0" departLane="random" id="v154" route="r232" type="CarDefault"/>
  <vehicle depart="20.0" departLane="random" id="v155" route="r232" type="CarDefault"/>
  <vehicle depart="20.0" departLane="random" id="v156" route="r232" type="CarDefault"/>
  <vehicle depart="20.0" departLane="random" id="v157" route="r232" type="CarDefault"/>
  <vehicle depart="20.0" departLane="random" id="v158" route="r232" type="CarDefault"/>
  <vehicle depart="20.0" departLane="random" id="v159" route="r232" type="CarDefault"/>

  <vehicle depart="25.0" departLane="random" id="v120" route="r231" type="CarDefault"/>
  <vehicle depart="25.0" departLane="random" id="v121" route="r231" type="CarDefault"/>
  <vehicle depart="25.0" departLane="random" id="v122" route="r231" type="CarDefault"/>
  <vehicle depart="25.0" departLane="random" id="v123" route="r231" type="CarDefault"/>
  <vehicle depart="25.0" departLane="random" id="v124" route="r231" type="CarDefault"/>
  <vehicle depart="25.0" departLane="random" id="v125" route="r231" type="CarDefault"/>
  <vehicle depart="25.0" departLane="random" id="v126" route="r231" type="CarDefault"/>
  <vehicle depart="25.0" departLane="random" id="v127" route="r231" type="CarDefault"/>
  <vehicle depart="25.0" departLane="random" id="v128" route="r231" type="CarDefault"/>
  <vehicle depart="25.0" departLane="random" id="v129" route="r231" type="CarDefault"/>
  <vehicle depart="25.0" departLane="random" id="v130" route="r231" type="CarDefault"/>
  <vehicle depart="25.0" departLane="random" id="v131" route="r231" type="CarDefault"/>
  <vehicle depart="25.0" departLane="random" id="v132" route="r231" type="CarDefault"/>
  <vehicle depart="25.0" departLane="random" id="v133" route="r231" type="CarDefault"/>
  <vehicle depart="25.0" departLane="random" id="v134" route="r231" type="CarDefault"/>
  <vehicle depart="25.0" departLane="random" id="v135" route="r231" type="CarDefault"/>
  <vehicle depart="25.0" departLane="random" id="v136" route="r231" type="CarDefault"/>
  <vehicle depart="25.0" departLane="random" id="v137" route="r231" type="CarDefault"/>
  <vehicle depart="25.0" departLane="random" id="v138" route="r231" type="CarDefault"/>
  <vehicle depart="25.0" departLane="random" id="v139" route="r231" type="CarDefault"/>
  <vehicle depart="25.0" departLane="random" id="v140" route="r231" type="CarDefault"/>
  <vehicle depart="25.0" departLane="random" id="v141" route="r231" type="CarDefault"/>
  <vehicle depart="25.0" departLane="random" id="v142" route="r231" type="CarDefault"/>
  <vehicle depart="25.0" departLane="random" id="v143" route="r231" type="CarDefault"/>
  <vehicle depart="25.0" departLane="random" id="v144" route="r231" type="CarDefault"/>
  <vehicle depart="25.0" departLane="random" id="v145" route="r231" type="CarDefault"/>
  <vehicle depart="25.0" departLane="random" id="v146" route="r231" type="CarDefault"/>
  <vehicle depart="25.0" departLane="random" id="v147" route="r231" type="CarDefault"/>
  <vehicle depart="25.0" departLane="random" id="v148" route="r231" type="CarDefault"/>
  <vehicle depart="25.0" departLane="random" id="v149" route="r231" type="CarDefault"/>

  <vehicle depart="30.0" departLane="random" id="v105" route="r230" type="CarDefault"/>
  <vehicle depart="30.0" departLane="random" id="v106" route="r230" type="CarDefault"/>
  <vehicle depart="30.0" departLane="random" id="v107" route="r230" type="CarDefault"/>
  <vehicle depart="30.0" departLane="random" id="v108" route="r230" type="CarDefault"/>
  <vehicle depart="30.0" departLane="random" id="v109" route="r230" type="CarDefault"/>
  <vehicle depart="30.0" departLane="random" id="v110" route="r230" type="CarDefault"/>
  <vehicle depart="30.0" departLane="random" id="v111" route="r230" type="CarDefault"/>
  <vehicle depart="30.0" departLane="random" id="v112" route="r230" type="CarDefault"/>
  <vehicle depart="30.0" departLane="random" id="v113" route="r230" type="CarDefault"/>
  <vehicle depart="30.0" departLane="random" id="v114" route="r230" type="CarDefault"/>
  <vehicle depart="30.0" departLane="random" id="v115" route="r230" type="CarDefault"/>
  <vehicle depart="30.0" departLane="random" id="v116" route="r230" type="CarDefault"/>
  <vehicle depart="30.0" departLane="random" id="v117" route="r230" type="CarDefault"/>
  <vehicle depart="30.0" departLane="random" id="v118" route="r230" type="CarDefault"/>
  <vehicle depart="30.0" departLane="random" id="v119" route="r230" type="CarDefault"/>
</routes>
