<?xml version='1.0' encoding='utf-8'?>
<net xmlns:xsi="http://www.w3.org/2001/XMLSchema-instance" version="1.9" junctionCornerDetail="5" limitTurnSpeed="5.50" xsi:noNamespaceSchemaLocation="http://sumo.dlr.de/xsd/net_file.xsd">
	<location netOffset="-336586.08,3754670.31" convBoundary="0.00,49.91,2505.06,2196.77" origBoundary="151.232525,-33.920080,151.266296,-33.899237" projParameter="+proj=utm +zone=56 +ellps=WGS84 +datum=WGS84 +units=m +no_defs" />
	<subgraphs>
		<subgraph id="shortest_length_0" from_junction="357" to_junction="315" edges="970,268,968,967,210,957,252,17,766,884,479,984,511,890,741,286,544,553,269,283,1004,89,922,774,86,18,375,38,549,13,253,583,709,763,11,1002,19,958,341,405,972,989,339,371,92,107,513,891,346,285,976,742,503,975,551,480,743,267,768,543,828,512,415,20,827,112,1006,1007,885,933,712,483,487,886,502,233,12,710,430,894,744,84,381,985,550,335,16,745,892,1005,762,21,628,552,1003,938,608,93,990,62,554,627,488,284,482,15,893" />
		<subgraph id="shortest_length_1" from_junction="358" to_junction="87" edges="970,965,111,1013,758,641,959,864,211,210,410,17,984,741,1026,865,950,18,126,9,232,763,11,760,445,341,989,446,964,449,127,585,333,825,563,10,447,1038,1027,292,12,430,338,751,82,969,985,988,16,1012,213,759,762,448,750,608,990,212,14,742,411,15,125" />
		<subgraph id="shortest_length_2" from_junction="77" to_junction="316" edges="498,733,252,770,691,821,1059,779,388,269,688,637,378,390,1004,89,159,605,719,386,547,549,253,583,738,732,1002,130,797,996,909,1014,472,891,305,248,594,551,954,906,862,883,748,638,767,713,896,131,805,752,894,761,340,903,84,548,765,546,699,550,631,640,908,777,1005,895,603,747,157,729,21,1003,559,175,554,387,132,161,857,782,830,268,766,858,536,1057,110,882,904,778,553,506,952,604,764,86,721,658,38,907,347,880,781,726,19,839,405,339,630,306,373,98,876,905,810,496,833,1017,840,692,129,20,639,615,730,379,822,315,731,674,602,749,611,783,318,174,629,164,881,501,552,861,728,62,389,725,879,249" />
		<subgraph id="shortest_length_3" from_junction="87" to_junction="316" edges="226,830,224,268,968,244,967,957,498,252,439,1057,770,245,834,821,354,778,1059,779,553,388,506,357,378,637,1004,89,390,386,86,874,253,583,347,1002,130,19,958,197,438,839,405,630,339,373,472,711,225,810,496,305,833,594,551,840,878,432,486,129,20,639,615,638,748,767,578,379,356,822,487,315,713,131,805,894,316,340,749,84,254,611,631,550,855,317,640,629,777,1005,747,501,21,355,552,1003,62,554,387,389,132,485" />
	</subgraphs>
	<type id="highway.bridleway" priority="1" numLanes="1" speed="2.78" allow="pedestrian" oneway="1" width="2.00" />
	<type id="highway.bus_guideway" priority="1" numLanes="1" speed="27.78" allow="bus" oneway="1" />
	<type id="highway.cycleway" priority="1" numLanes="1" speed="8.33" allow="bicycle" oneway="0" width="1.00" />
	<type id="highway.footway" priority="1" numLanes="1" speed="2.78" allow="pedestrian" oneway="1" width="2.00" />
	<type id="highway.ford" priority="1" numLanes="1" speed="2.78" allow="army" oneway="0" />
	<type id="highway.living_street" priority="2" numLanes="1" speed="2.78" disallow="tram rail_urban rail rail_electric rail_fast ship" oneway="0" />
	<type id="highway.motorway" priority="14" numLanes="2" speed="39.44" allow="private emergency authority army vip passenger hov taxi bus coach delivery truck trailer motorcycle evehicle custom1 custom2" oneway="1" />
	<type id="highway.motorway_link" priority="9" numLanes="1" speed="22.22" allow="private emergency authority army vip passenger hov taxi bus coach delivery truck trailer motorcycle evehicle custom1 custom2" oneway="1" />
	<type id="highway.path" priority="1" numLanes="1" speed="2.78" allow="pedestrian bicycle" oneway="0" width="2.00" />
	<type id="highway.pedestrian" priority="1" numLanes="1" speed="2.78" allow="pedestrian" oneway="1" width="2.00" />
	<type id="highway.primary" priority="12" numLanes="2" speed="27.78" disallow="tram rail_urban rail rail_electric rail_fast ship" oneway="0" />
	<type id="highway.primary_link" priority="7" numLanes="1" speed="22.22" disallow="tram rail_urban rail rail_electric rail_fast ship" oneway="0" />
	<type id="highway.raceway" priority="15" numLanes="2" speed="83.33" allow="vip" oneway="0" />
	<type id="highway.residential" priority="3" numLanes="1" speed="13.89" disallow="tram rail_urban rail rail_electric rail_fast ship" oneway="0" />
	<type id="highway.secondary" priority="11" numLanes="1" speed="27.78" disallow="tram rail_urban rail rail_electric rail_fast ship" oneway="0" />
	<type id="highway.secondary_link" priority="6" numLanes="1" speed="22.22" disallow="tram rail_urban rail rail_electric rail_fast ship" oneway="0" />
	<type id="highway.service" priority="1" numLanes="1" speed="5.56" allow="pedestrian delivery bicycle" oneway="0" />
	<type id="highway.stairs" priority="1" numLanes="1" speed="1.39" allow="pedestrian" oneway="1" width="2.00" />
	<type id="highway.step" priority="1" numLanes="1" speed="1.39" allow="pedestrian" oneway="1" width="2.00" />
	<type id="highway.steps" priority="1" numLanes="1" speed="1.39" allow="pedestrian" oneway="1" width="2.00" />
	<type id="highway.tertiary" priority="10" numLanes="1" speed="22.22" disallow="tram rail_urban rail rail_electric rail_fast ship" oneway="0" />
	<type id="highway.tertiary_link" priority="5" numLanes="1" speed="22.22" disallow="tram rail_urban rail rail_electric rail_fast ship" oneway="0" />
	<type id="highway.track" priority="1" numLanes="1" speed="5.56" allow="pedestrian motorcycle moped bicycle" oneway="0" />
	<type id="highway.trunk" priority="13" numLanes="2" speed="27.78" disallow="pedestrian bicycle tram rail_urban rail rail_electric rail_fast ship" oneway="0" />
	<type id="highway.trunk_link" priority="8" numLanes="1" speed="22.22" disallow="pedestrian bicycle tram rail_urban rail rail_electric rail_fast ship" oneway="0" />
	<type id="highway.unclassified" priority="4" numLanes="1" speed="13.89" disallow="tram rail_urban rail rail_electric rail_fast ship" oneway="0" />
	<type id="highway.unsurfaced" priority="1" numLanes="1" speed="8.33" disallow="tram rail_urban rail rail_electric rail_fast ship" oneway="0" />
	<type id="railway.highspeed" priority="21" numLanes="1" speed="69.44" allow="rail_fast" oneway="1" />
	<type id="railway.light_rail" priority="19" numLanes="1" speed="27.78" allow="rail_urban" oneway="1" />
	<type id="railway.preserved" priority="16" numLanes="1" speed="27.78" allow="rail" oneway="1" />
	<type id="railway.rail" priority="20" numLanes="1" speed="44.44" allow="rail" oneway="1" />
	<type id="railway.subway" priority="18" numLanes="1" speed="27.78" allow="rail_urban" oneway="1" />
	<type id="railway.tram" priority="17" numLanes="1" speed="13.89" allow="tram" oneway="1" />
	<edge id=":101_0" function="internal">
		<lane id=":101_0_0" index="0" disallow="tram rail_urban rail rail_electric rail_fast ship" speed="22.22" length="0.31" shape="1704.65,593.35 1704.35,593.39" />
	</edge>
	<edge id=":101_1" function="internal">
		<lane id=":101_1_0" index="0" disallow="tram rail_urban rail rail_electric rail_fast ship" speed="3.65" length="2.34" shape="1704.65,593.35 1703.34,592.75 1702.82,592.02" />
	</edge>
	<edge id=":101_4" function="internal">
		<lane id=":101_4_0" index="0" disallow="tram rail_urban rail rail_electric rail_fast ship" speed="3.65" length="2.34" shape="1702.82,592.02 1703.08,591.17 1704.14,590.19" />
	</edge>
	<edge id=":101_2" function="internal">
		<lane id=":101_2_0" index="0" disallow="tram rail_urban rail rail_electric rail_fast ship" speed="22.22" length="0.29" shape="1703.85,590.23 1704.14,590.19" />
	</edge>
	<edge id=":101_3" function="internal">
		<lane id=":101_3_0" index="0" disallow="tram rail_urban rail rail_electric rail_fast ship" speed="3.65" length="2.34" shape="1703.85,590.23 1705.16,590.84 1705.68,591.56" />
	</edge>
	<edge id=":101_5" function="internal">
		<lane id=":101_5_0" index="0" disallow="tram rail_urban rail rail_electric rail_fast ship" speed="3.65" length="2.34" shape="1705.68,591.56 1705.41,592.42 1704.35,593.39" />
	</edge>
	<edge id=":103_0" function="internal">
		<lane id=":103_0_0" index="0" disallow="tram rail_urban rail rail_electric rail_fast ship" speed="3.91" length="2.53" shape="2204.42,247.48 2203.76,247.68 2203.32,248.05 2203.10,248.58 2203.09,249.27" />
	</edge>
	<edge id=":104_0" function="internal">
		<lane id=":104_0_0" index="0" disallow="tram rail_urban rail rail_electric rail_fast ship" speed="13.89" length="0.30" shape="1533.26,384.80 1533.22,384.50" />
	</edge>
	<edge id=":104_1" function="internal">
		<lane id=":104_1_0" index="0" disallow="tram rail_urban rail rail_electric rail_fast ship" speed="3.65" length="2.34" shape="1533.26,384.80 1533.86,383.48 1534.59,382.96" />
	</edge>
	<edge id=":104_4" function="internal">
		<lane id=":104_4_0" index="0" disallow="tram rail_urban rail rail_electric rail_fast ship" speed="3.65" length="2.34" shape="1534.59,382.96 1535.44,383.23 1536.42,384.28" />
	</edge>
	<edge id=":104_2" function="internal">
		<lane id=":104_2_0" index="0" disallow="tram rail_urban rail rail_electric rail_fast ship" speed="13.89" length="0.30" shape="1536.38,383.99 1536.42,384.28" />
	</edge>
	<edge id=":104_3" function="internal">
		<lane id=":104_3_0" index="0" disallow="tram rail_urban rail rail_electric rail_fast ship" speed="3.65" length="2.34" shape="1536.38,383.99 1535.78,385.30 1535.05,385.82" />
	</edge>
	<edge id=":104_5" function="internal">
		<lane id=":104_5_0" index="0" disallow="tram rail_urban rail rail_electric rail_fast ship" speed="3.65" length="2.34" shape="1535.05,385.82 1534.20,385.55 1533.22,384.50" />
	</edge>
	<edge id=":107_0" function="internal">
		<lane id=":107_0_0" index="0" disallow="tram rail_urban rail rail_electric rail_fast ship" speed="13.89" length="0.30" shape="947.76,196.75 948.05,196.69" />
	</edge>
	<edge id=":108_0" function="internal">
		<lane id=":108_0_0" index="0" disallow="tram rail_urban rail rail_electric rail_fast ship" speed="13.89" length="10.68" shape="2321.54,222.48 2323.11,233.04" />
	</edge>
	<edge id=":108_1" function="internal">
		<lane id=":108_1_0" index="0" disallow="tram rail_urban rail rail_electric rail_fast ship" speed="6.57" length="8.75" shape="2321.54,222.48 2321.53,224.82 2320.76,226.65 2319.25,227.97 2316.97,228.78" />
	</edge>
	<edge id=":112_0" function="internal">
		<lane id=":112_0_0" index="0" disallow="tram rail_urban rail rail_electric rail_fast ship" speed="6.48" length="4.18" shape="1406.41,307.24 1406.32,304.76 1406.93,303.18" />
	</edge>
	<edge id=":112_2" function="internal">
		<lane id=":112_2_0" index="0" disallow="tram rail_urban rail rail_electric rail_fast ship" speed="6.48" length="4.86" shape="1406.93,303.18 1407.05,302.86 1408.60,301.54 1410.97,300.79" />
	</edge>
	<edge id=":112_1" function="internal">
		<lane id=":112_1_0" index="0" disallow="tram rail_urban rail rail_electric rail_fast ship" speed="13.89" length="11.18" shape="1399.92,302.53 1410.97,300.79" />
	</edge>
	<edge id=":113_0" function="internal">
		<lane id=":113_0_0" index="0" disallow="tram rail_urban rail rail_electric rail_fast ship" speed="27.78" length="0.31" shape="1489.79,115.20 1489.75,114.90" />
	</edge>
	<edge id=":113_1" function="internal">
		<lane id=":113_1_0" index="0" disallow="tram rail_urban rail rail_electric rail_fast ship" speed="3.65" length="2.34" shape="1489.79,115.20 1490.39,113.89 1491.12,113.37" />
	</edge>
	<edge id=":113_4" function="internal">
		<lane id=":113_4_0" index="0" disallow="tram rail_urban rail rail_electric rail_fast ship" speed="3.65" length="2.34" shape="1491.12,113.37 1491.97,113.63 1492.95,114.69" />
	</edge>
	<edge id=":113_2" function="internal">
		<lane id=":113_2_0" index="0" disallow="tram rail_urban rail rail_electric rail_fast ship" speed="27.78" length="0.28" shape="1492.91,114.41 1492.95,114.69" />
	</edge>
	<edge id=":113_3" function="internal">
		<lane id=":113_3_0" index="0" disallow="tram rail_urban rail rail_electric rail_fast ship" speed="3.65" length="2.34" shape="1492.91,114.41 1492.30,115.72 1491.57,116.24" />
	</edge>
	<edge id=":113_5" function="internal">
		<lane id=":113_5_0" index="0" disallow="tram rail_urban rail rail_electric rail_fast ship" speed="3.65" length="2.34" shape="1491.57,116.24 1490.72,115.96 1489.75,114.90" />
	</edge>
	<edge id=":116_0" function="internal">
		<lane id=":116_0_0" index="0" disallow="tram rail_urban rail rail_electric rail_fast ship" speed="13.89" length="0.31" shape="444.09,626.21 444.02,625.90" />
	</edge>
	<edge id=":116_1" function="internal">
		<lane id=":116_1_0" index="0" disallow="tram rail_urban rail rail_electric rail_fast ship" speed="3.65" length="2.34" shape="444.09,626.21 444.61,624.87 445.31,624.31" />
	</edge>
	<edge id=":116_4" function="internal">
		<lane id=":116_4_0" index="0" disallow="tram rail_urban rail rail_electric rail_fast ship" speed="3.65" length="2.34" shape="445.31,624.31 446.18,624.53 447.21,625.53" />
	</edge>
	<edge id=":116_2" function="internal">
		<lane id=":116_2_0" index="0" disallow="tram rail_urban rail rail_electric rail_fast ship" speed="13.89" length="0.26" shape="447.16,625.27 447.21,625.53" />
	</edge>
	<edge id=":116_3" function="internal">
		<lane id=":116_3_0" index="0" disallow="tram rail_urban rail rail_electric rail_fast ship" speed="3.65" length="2.34" shape="447.16,625.27 446.61,626.61 445.91,627.16" />
	</edge>
	<edge id=":116_5" function="internal">
		<lane id=":116_5_0" index="0" disallow="tram rail_urban rail rail_electric rail_fast ship" speed="3.65" length="2.34" shape="445.91,627.16 445.04,626.92 444.02,625.90" />
	</edge>
	<edge id=":117_0" function="internal">
		<lane id=":117_0_0" index="0" disallow="tram rail_urban rail rail_electric rail_fast ship" speed="27.78" length="0.31" shape="1470.97,638.11 1470.67,638.18" />
	</edge>
	<edge id=":117_1" function="internal">
		<lane id=":117_1_0" index="0" disallow="tram rail_urban rail rail_electric rail_fast ship" speed="3.65" length="2.34" shape="1470.97,638.11 1469.62,637.62 1469.03,636.94" />
	</edge>
	<edge id=":117_4" function="internal">
		<lane id=":117_4_0" index="0" disallow="tram rail_urban rail rail_electric rail_fast ship" speed="3.65" length="2.34" shape="1469.03,636.94 1469.23,636.07 1470.20,635.00" />
	</edge>
	<edge id=":117_2" function="internal">
		<lane id=":117_2_0" index="0" disallow="tram rail_urban rail rail_electric rail_fast ship" speed="27.78" length="0.25" shape="1469.95,635.06 1470.20,635.00" />
	</edge>
	<edge id=":117_3" function="internal">
		<lane id=":117_3_0" index="0" disallow="tram rail_urban rail rail_electric rail_fast ship" speed="3.65" length="2.34" shape="1469.95,635.06 1471.30,635.57 1471.87,636.26" />
	</edge>
	<edge id=":117_5" function="internal">
		<lane id=":117_5_0" index="0" disallow="tram rail_urban rail rail_electric rail_fast ship" speed="3.65" length="2.34" shape="1471.87,636.26 1471.66,637.13 1470.67,638.18" />
	</edge>
	<edge id=":120_0" function="internal">
		<lane id=":120_0_0" index="0" disallow="tram rail_urban rail rail_electric rail_fast ship" speed="13.89" length="0.30" shape="1988.43,713.85 1988.66,714.03" />
	</edge>
	<edge id=":122_0" function="internal">
		<lane id=":122_0_0" index="0" disallow="tram rail_urban rail rail_electric rail_fast ship" speed="3.91" length="2.52" shape="2211.73,313.54 2211.72,314.22 2211.50,314.75 2211.06,315.12 2210.41,315.33" />
	</edge>
	<edge id=":124_0" function="internal">
		<lane id=":124_0_0" index="0" disallow="tram rail_urban rail rail_electric rail_fast ship" speed="27.78" length="0.30" shape="1389.74,676.37 1389.48,676.53" />
	</edge>
	<edge id=":124_1" function="internal">
		<lane id=":124_1_0" index="0" disallow="tram rail_urban rail rail_electric rail_fast ship" speed="3.65" length="2.34" shape="1389.74,676.37 1388.30,676.35 1387.52,675.90" />
	</edge>
	<edge id=":124_4" function="internal">
		<lane id=":124_4_0" index="0" disallow="tram rail_urban rail rail_electric rail_fast ship" speed="3.65" length="2.34" shape="1387.52,675.90 1387.42,675.01 1387.99,673.69" />
	</edge>
	<edge id=":124_2" function="internal">
		<lane id=":124_2_0" index="0" disallow="tram rail_urban rail rail_electric rail_fast ship" speed="27.78" length="0.29" shape="1387.75,673.85 1387.99,673.69" />
	</edge>
	<edge id=":124_3" function="internal">
		<lane id=":124_3_0" index="0" disallow="tram rail_urban rail rail_electric rail_fast ship" speed="3.65" length="2.34" shape="1387.75,673.85 1389.19,673.87 1389.96,674.32" />
	</edge>
	<edge id=":124_5" function="internal">
		<lane id=":124_5_0" index="0" disallow="tram rail_urban rail rail_electric rail_fast ship" speed="3.65" length="2.34" shape="1389.96,674.32 1390.06,675.21 1389.48,676.53" />
	</edge>
	<edge id=":127_0" function="internal">
		<lane id=":127_0_0" index="0" disallow="tram rail_urban rail rail_electric rail_fast ship" speed="20.84" length="0.31" shape="1528.42,354.77 1528.38,354.46" />
	</edge>
	<edge id=":127_1" function="internal">
		<lane id=":127_1_0" index="0" disallow="tram rail_urban rail rail_electric rail_fast ship" speed="3.65" length="2.34" shape="1528.42,354.77 1529.02,353.46 1529.75,352.94" />
	</edge>
	<edge id=":127_4" function="internal">
		<lane id=":127_4_0" index="0" disallow="tram rail_urban rail rail_electric rail_fast ship" speed="3.65" length="2.34" shape="1529.75,352.94 1530.60,353.20 1531.58,354.26" />
	</edge>
	<edge id=":127_2" function="internal">
		<lane id=":127_2_0" index="0" disallow="tram rail_urban rail rail_electric rail_fast ship" speed="20.84" length="0.28" shape="1531.54,353.99 1531.58,354.26" />
	</edge>
	<edge id=":127_3" function="internal">
		<lane id=":127_3_0" index="0" disallow="tram rail_urban rail rail_electric rail_fast ship" speed="3.65" length="2.34" shape="1531.54,353.99 1530.93,355.29 1530.20,355.81" />
	</edge>
	<edge id=":127_5" function="internal">
		<lane id=":127_5_0" index="0" disallow="tram rail_urban rail rail_electric rail_fast ship" speed="3.65" length="2.34" shape="1530.20,355.81 1529.35,355.53 1528.38,354.46" />
	</edge>
	<edge id=":129_0" function="internal">
		<lane id=":129_0_0" index="0" disallow="tram rail_urban rail rail_electric rail_fast ship" speed="22.22" length="0.18" shape="1916.45,1532.35 1916.31,1532.23" />
	</edge>
	<edge id=":130_0" function="internal">
		<lane id=":130_0_0" index="0" disallow="tram rail_urban rail rail_electric rail_fast ship" speed="13.89" length="0.47" shape="1836.38,1084.39 1836.30,1084.51 1836.24,1084.58 1836.17,1084.65 1836.07,1084.74" />
	</edge>
	<edge id=":132_0" function="internal">
		<lane id=":132_0_0" index="0" disallow="tram rail_urban rail rail_electric rail_fast ship" speed="8.05" length="11.73" shape="1777.78,1114.01 1774.41,1115.75 1772.12,1117.72 1770.90,1119.91 1770.76,1122.31" />
	</edge>
	<edge id=":132_1" function="internal">
		<lane id=":132_1_0" index="0" disallow="tram rail_urban rail rail_electric rail_fast ship" speed="15.28" length="13.37" shape="1777.78,1114.01 1774.56,1115.38 1771.61,1116.61 1768.62,1117.70 1765.26,1118.65" />
	</edge>
	<edge id=":132_2" function="internal">
		<lane id=":132_2_0" index="0" disallow="tram rail_urban rail rail_electric rail_fast ship" speed="27.78" length="11.63" shape="1772.20,1110.89 1772.24,1114.38 1771.52,1116.88 1770.78,1119.24 1770.76,1122.31" />
	</edge>
	<edge id=":132_3" function="internal">
		<lane id=":132_3_0" index="0" disallow="tram rail_urban rail rail_electric rail_fast ship" speed="6.74" length="9.14" shape="1769.04,1111.39 1769.16,1114.13 1768.57,1116.26 1767.27,1117.76 1765.26,1118.65" />
	</edge>
	<edge id=":133_0" function="internal">
		<lane id=":133_0_0" index="0" disallow="tram rail_urban rail rail_electric rail_fast ship" speed="13.89" length="0.20" shape="1930.98,970.09 1930.92,970.10 1930.88,970.11 1930.85,970.12 1930.79,970.13" />
	</edge>
	<edge id=":134_0" function="internal">
		<lane id=":134_0_0" index="0" disallow="tram rail_urban rail rail_electric rail_fast ship" speed="18.05" length="5.71" shape="2070.65,1329.19 2069.48,1330.40 2068.55,1331.08 2067.52,1331.64 2066.03,1332.47" />
	</edge>
	<edge id=":136_0" function="internal">
		<lane id=":136_0_0" index="0" disallow="tram rail_urban rail rail_electric rail_fast ship" speed="22.23" length="8.26" shape="1765.00,1086.42 1765.98,1088.71 1767.35,1090.01 1768.68,1091.31 1769.53,1093.63" />
		<lane id=":136_0_1" index="1" disallow="tram rail_urban rail rail_electric rail_fast ship" speed="22.23" length="8.26" shape="1765.00,1086.42 1766.37,1094.10" />
	</edge>
	<edge id=":142_0" function="internal">
		<lane id=":142_0_0" index="0" disallow="tram rail_urban rail rail_electric rail_fast ship" speed="10.69" length="4.87" shape="2069.55,1337.10 2069.83,1338.45 2069.67,1339.41 2069.29,1340.40 2068.91,1341.80" />
	</edge>
	<edge id=":143_0" function="internal">
		<lane id=":143_0_0" index="0" disallow="tram rail_urban rail rail_electric rail_fast ship" speed="6.56" length="8.84" shape="2013.03,1483.13 2010.68,1482.48 2008.67,1482.71 2006.99,1483.80 2005.65,1485.76" />
	</edge>
	<edge id=":143_1" function="internal">
		<lane id=":143_1_0" index="0" disallow="tram rail_urban rail rail_electric rail_fast ship" speed="11.11" length="10.79" shape="2010.35,1476.04 2005.65,1485.76" />
	</edge>
	<edge id=":148_0" function="internal">
		<lane id=":148_0_0" index="0" disallow="tram rail_urban rail rail_electric rail_fast ship" speed="3.90" length="2.62" shape="1771.98,1445.41 1771.26,1445.51 1770.75,1445.81 1770.45,1446.32 1770.36,1447.03" />
	</edge>
	<edge id=":150_0" function="internal">
		<lane id=":150_0_0" index="0" disallow="tram rail_urban rail rail_electric rail_fast ship" speed="11.11" length="0.30" shape="2183.66,1457.19 2183.37,1457.24" />
	</edge>
	<edge id=":152_0" function="internal">
		<lane id=":152_0_0" index="0" disallow="tram rail_urban rail rail_electric rail_fast ship" speed="3.90" length="2.58" shape="358.50,1054.94 358.70,1055.62 359.07,1056.07 359.61,1056.29 360.31,1056.29" />
	</edge>
	<edge id=":153_0" function="internal">
		<lane id=":153_0_0" index="0" disallow="tram rail_urban rail rail_electric rail_fast ship" speed="13.89" length="0.10" shape="510.38,1663.87 510.38,1663.87" />
	</edge>
	<edge id=":154_0" function="internal">
		<lane id=":154_0_0" index="0" disallow="tram rail_urban rail rail_electric rail_fast ship" speed="8.48" length="4.00" shape="535.65,1825.31 535.65,1829.31" />
	</edge>
	<edge id=":156_0" function="internal">
		<lane id=":156_0_0" index="0" disallow="tram rail_urban rail rail_electric rail_fast ship" speed="6.51" length="9.03" shape="794.98,1706.15 794.27,1703.78 792.98,1702.20 791.09,1701.42 788.62,1701.44" />
	</edge>
	<edge id=":156_1" function="internal">
		<lane id=":156_1_0" index="0" disallow="tram rail_urban rail rail_electric rail_fast ship" speed="3.65" length="1.44" shape="794.98,1706.15 795.60,1704.84" />
	</edge>
	<edge id=":156_4" function="internal">
		<lane id=":156_4_0" index="0" disallow="tram rail_urban rail rail_electric rail_fast ship" speed="3.65" length="3.23" shape="795.60,1704.84 796.33,1704.33 797.18,1704.60 798.15,1705.67" />
	</edge>
	<edge id=":156_2" function="internal">
		<lane id=":156_2_0" index="0" disallow="tram rail_urban rail rail_electric rail_fast ship" speed="13.89" length="11.20" shape="796.49,1694.60 798.15,1705.67" />
	</edge>
	<edge id=":156_3" function="internal">
		<lane id=":156_3_0" index="0" disallow="tram rail_urban rail rail_electric rail_fast ship" speed="7.33" length="7.46" shape="796.49,1694.60 796.31,1697.10 794.94,1699.08 792.72,1700.33" />
	</edge>
	<edge id=":156_5" function="internal">
		<lane id=":156_5_0" index="0" disallow="tram rail_urban rail rail_electric rail_fast ship" speed="7.33" length="4.26" shape="792.72,1700.33 792.37,1700.52 788.62,1701.44" />
	</edge>
	<edge id=":16_0" function="internal">
		<lane id=":16_0_0" index="0" disallow="tram rail_urban rail rail_electric rail_fast ship" speed="13.89" length="0.10" shape="2284.64,1399.03 2284.54,1399.04" />
	</edge>
	<edge id=":160_0" function="internal">
		<lane id=":160_0_0" index="0" disallow="tram rail_urban rail rail_electric rail_fast ship" speed="6.51" length="8.86" shape="842.53,1152.73 843.25,1155.04 844.54,1156.59 846.39,1157.37 848.81,1157.39" />
	</edge>
	<edge id=":160_1" function="internal">
		<lane id=":160_1_0" index="0" disallow="tram rail_urban rail rail_electric rail_fast ship" speed="7.24" length="11.49" shape="842.53,1152.73 842.79,1156.51 842.20,1159.33 840.76,1161.19 838.46,1162.09" />
	</edge>
	<edge id=":161_0" function="internal">
		<lane id=":161_0_0" index="0" disallow="tram rail_urban rail rail_electric rail_fast ship" speed="13.89" length="0.29" shape="728.79,1236.76 728.83,1237.05" />
	</edge>
	<edge id=":162_0" function="internal">
		<lane id=":162_0_0" index="0" disallow="tram rail_urban rail rail_electric rail_fast ship" speed="13.89" length="11.18" shape="685.06,1716.38 673.98,1717.90" />
	</edge>
	<edge id=":162_1" function="internal">
		<lane id=":162_1_0" index="0" disallow="tram rail_urban rail rail_electric rail_fast ship" speed="6.52" length="9.04" shape="678.72,1711.54 678.73,1714.01 677.94,1715.89 676.36,1717.19 673.98,1717.90" />
	</edge>
	<edge id=":163_0" function="internal">
		<lane id=":163_0_0" index="0" disallow="tram rail_urban rail rail_electric rail_fast ship" speed="13.89" length="0.10" shape="582.70,1299.87 582.70,1299.87" />
	</edge>
	<edge id=":164_0" function="internal">
		<lane id=":164_0_0" index="0" disallow="tram rail_urban rail rail_electric rail_fast ship" speed="3.90" length="2.58" shape="790.03,1230.71 789.35,1230.90 788.90,1231.27 788.67,1231.81 788.67,1232.52" />
	</edge>
	<edge id=":165_0" function="internal">
		<lane id=":165_0_0" index="0" disallow="tram rail_urban rail rail_electric rail_fast ship" speed="6.51" length="9.02" shape="884.60,1155.73 882.23,1156.43 880.65,1157.72 879.86,1159.60 879.86,1162.07" />
	</edge>
	<edge id=":165_1" function="internal">
		<lane id=":165_1_0" index="0" disallow="tram rail_urban rail rail_electric rail_fast ship" speed="3.65" length="1.44" shape="884.60,1155.73 883.30,1155.11" />
	</edge>
	<edge id=":165_4" function="internal">
		<lane id=":165_4_0" index="0" disallow="tram rail_urban rail rail_electric rail_fast ship" speed="3.65" length="3.23" shape="883.30,1155.11 882.79,1154.38 883.07,1153.53 884.14,1152.56" />
	</edge>
	<edge id=":165_2" function="internal">
		<lane id=":165_2_0" index="0" disallow="tram rail_urban rail rail_electric rail_fast ship" speed="13.89" length="11.16" shape="873.09,1154.13 884.14,1152.56" />
	</edge>
	<edge id=":165_3" function="internal">
		<lane id=":165_3_0" index="0" disallow="tram rail_urban rail rail_electric rail_fast ship" speed="7.34" length="7.46" shape="873.09,1154.13 875.59,1154.34 877.55,1155.74 878.78,1157.97" />
	</edge>
	<edge id=":165_5" function="internal">
		<lane id=":165_5_0" index="0" disallow="tram rail_urban rail rail_electric rail_fast ship" speed="7.34" length="4.25" shape="878.78,1157.97 878.97,1158.31 879.86,1162.07" />
	</edge>
	<edge id=":166_0" function="internal">
		<lane id=":166_0_0" index="0" disallow="tram rail_urban rail rail_electric rail_fast ship" speed="6.43" length="9.03" shape="641.63,1010.60 642.26,1013.01 643.51,1014.60 645.38,1015.39 647.87,1015.38" />
	</edge>
	<edge id=":166_1" function="internal">
		<lane id=":166_1_0" index="0" disallow="tram rail_urban rail rail_electric rail_fast ship" speed="13.89" length="11.37" shape="641.63,1010.60 642.80,1021.91" />
	</edge>
	<edge id=":166_2" function="internal">
		<lane id=":166_2_0" index="0" disallow="tram rail_urban rail rail_electric rail_fast ship" speed="13.89" length="11.29" shape="636.70,1017.00 647.87,1015.38" />
	</edge>
	<edge id=":166_3" function="internal">
		<lane id=":166_3_0" index="0" disallow="tram rail_urban rail rail_electric rail_fast ship" speed="6.39" length="4.06" shape="636.70,1017.00 639.20,1017.02 640.63,1017.66" />
	</edge>
	<edge id=":166_4" function="internal">
		<lane id=":166_4_0" index="0" disallow="tram rail_urban rail rail_electric rail_fast ship" speed="6.39" length="4.98" shape="640.63,1017.66 641.04,1017.85 642.24,1019.47 642.80,1021.91" />
	</edge>
	<edge id=":167_0" function="internal">
		<lane id=":167_0_0" index="0" disallow="tram rail_urban rail rail_electric rail_fast ship" speed="3.90" length="2.58" shape="887.46,1215.32 887.46,1216.03 887.24,1216.57 886.78,1216.94 886.10,1217.13" />
	</edge>
	<edge id=":168_0" function="internal">
		<lane id=":168_0_0" index="0" disallow="tram rail_urban rail rail_electric rail_fast ship" speed="13.89" length="11.06" shape="1125.32,1813.51 1126.95,1824.45" />
		<lane id=":168_0_1" index="1" disallow="tram rail_urban rail rail_electric rail_fast ship" speed="13.89" length="11.06" shape="1122.15,1813.98 1123.78,1824.92" />
	</edge>
	<edge id=":168_2" function="internal">
		<lane id=":168_2_0" index="0" disallow="tram rail_urban rail rail_electric rail_fast ship" speed="6.52" length="8.96" shape="1117.46,1820.20 1119.92,1820.23 1121.80,1821.02 1123.08,1822.59 1123.78,1824.92" />
	</edge>
	<edge id=":169_0" function="internal">
		<lane id=":169_0_0" index="0" disallow="tram rail_urban rail rail_electric rail_fast ship" speed="5.82" length="7.22" shape="706.26,1877.36 705.81,1875.92 704.69,1874.98 702.92,1874.55 700.49,1874.61" />
	</edge>
	<edge id=":171_0" function="internal">
		<lane id=":171_0_0" index="0" disallow="tram rail_urban rail rail_electric rail_fast ship" speed="6.39" length="9.04" shape="545.18,1024.02 545.75,1026.45 546.96,1028.08 548.81,1028.89 551.31,1028.89" />
	</edge>
	<edge id=":171_1" function="internal">
		<lane id=":171_1_0" index="0" disallow="tram rail_urban rail rail_electric rail_fast ship" speed="13.89" length="11.31" shape="545.18,1024.02 546.34,1035.27" />
	</edge>
	<edge id=":171_2" function="internal">
		<lane id=":171_2_0" index="0" disallow="tram rail_urban rail rail_electric rail_fast ship" speed="13.89" length="11.39" shape="540.03,1030.50 551.31,1028.89" />
	</edge>