<?xml version='1.0' encoding='utf-8'?>
<net xmlns:xsi="http://www.w3.org/2001/XMLSchema-instance" version="1.9" junctionCornerDetail="5" limitTurnSpeed="5.50" xsi:noNamespaceSchemaLocation="http://sumo.dlr.de/xsd/net_file.xsd">
	<location netOffset="-336586.08,3754670.31" convBoundary="0.00,49.91,2514.60,2196.77" origBoundary="151.232525,-33.920080,151.266296,-33.899237" projParameter="+proj=utm +zone=56 +ellps=WGS84 +datum=WGS84 +units=m +no_defs" />
	<subgraphs>
		<subgraph id="minimal_similarity_0" from_junction="357" to_junction="315" edges="970,830,268,968,967,210,252,17,766,884,479,984,511,890,99,741,286,110,500,544,779,553,388,269,380,714,283,1004,390,922,386,774,86,18,547,375,13,549,531,253,583,311,763,11,1002,19,341,405,972,989,339,373,98,371,711,513,891,833,346,285,976,503,975,374,551,480,743,267,768,828,512,415,20,827,112,615,1006,1007,885,933,712,379,487,886,502,233,12,266,430,894,744,84,254,548,381,318,546,985,550,42,335,16,1018,745,76,1005,892,829,762,21,628,590,345,552,1003,938,608,62,990,554,389,934,627,279,262,488,284,742,935,15,893" />
		<subgraph id="minimal_similarity_1" from_junction="358" to_junction="87" edges="1033,970,965,111,1013,758,641,959,124,864,210,1031,410,17,984,741,1026,642,357,865,950,18,644,126,9,232,983,763,11,760,445,341,989,446,477,964,449,127,585,333,825,563,1039,10,447,152,112,1038,1027,356,292,645,12,978,430,338,751,123,82,969,985,988,16,977,1012,759,762,643,520,750,608,990,14,742,411,15,125" />
		<subgraph id="minimal_similarity_2" from_junction="77" to_junction="316" edges="498,733,252,884,770,245,691,834,821,1059,779,688,637,378,719,1004,605,159,922,386,547,549,253,583,732,738,1002,130,797,996,909,1014,472,711,891,305,248,551,954,543,906,862,827,883,748,638,767,713,487,896,131,805,752,894,761,340,903,84,254,381,548,887,546,765,699,631,550,640,263,777,908,829,895,264,1005,603,747,157,729,21,793,1003,559,175,554,132,161,857,782,830,377,244,766,479,1057,858,536,110,756,882,904,778,544,553,506,952,399,754,755,604,400,764,994,874,86,721,658,38,907,781,880,347,726,19,839,197,405,339,630,875,306,98,876,905,265,496,376,833,1017,840,480,383,878,692,768,486,129,828,20,639,615,885,730,385,712,379,822,315,731,674,602,749,783,318,174,478,384,629,164,826,720,881,501,118,552,861,938,728,62,725,673,879,485,249" />
		<subgraph id="minimal_similarity_3" from_junction="87" to_junction="316" edges="224,509,968,498,439,884,770,245,741,834,821,1059,779,378,605,1004,89,637,170,922,386,1002,130,958,438,909,972,190,472,711,225,305,142,503,551,217,740,827,152,638,748,767,578,713,71,487,896,131,151,805,340,961,254,887,631,550,571,317,640,263,138,908,892,1005,829,777,603,747,21,628,355,793,1003,137,608,554,387,508,627,132,226,830,377,268,244,967,957,143,479,1057,354,778,553,506,357,399,507,604,400,874,347,19,839,197,1009,332,630,339,686,373,98,496,376,833,1017,480,840,383,878,432,768,486,129,828,20,639,885,712,379,385,822,356,315,316,602,749,318,478,384,855,629,501,505,552,931,510,485,893" />
	</subgraphs>
	<type id="highway.bridleway" priority="1" numLanes="1" speed="2.78" allow="pedestrian" oneway="1" width="2.00" />
	<type id="highway.bus_guideway" priority="1" numLanes="1" speed="27.78" allow="bus" oneway="1" />
	<type id="highway.cycleway" priority="1" numLanes="1" speed="8.33" allow="bicycle" oneway="0" width="1.00" />
	<type id="highway.footway" priority="1" numLanes="1" speed="2.78" allow="pedestrian" oneway="1" width="2.00" />
	<type id="highway.ford" priority="1" numLanes="1" speed="2.78" allow="army" oneway="0" />
	<type id="highway.living_street" priority="2" numLanes="1" speed="2.78" disallow="tram rail_urban rail rail_electric rail_fast ship" oneway="0" />
	<type id="highway.motorway" priority="14" numLanes="2" speed="39.44" allow="private emergency authority army vip passenger hov taxi bus coach delivery truck trailer motorcycle evehicle custom1 custom2" oneway="1" />
	<type id="highway.motorway_link" priority="9" numLanes="1" speed="22.22" allow="private emergency authority army vip passenger hov taxi bus coach delivery truck trailer motorcycle evehicle custom1 custom2" oneway="1" />
	<type id="highway.path" priority="1" numLanes="1" speed="2.78" allow="pedestrian bicycle" oneway="0" width="2.00" />
	<type id="highway.pedestrian" priority="1" numLanes="1" speed="2.78" allow="pedestrian" oneway="1" width="2.00" />
	<type id="highway.primary" priority="12" numLanes="2" speed="27.78" disallow="tram rail_urban rail rail_electric rail_fast ship" oneway="0" />
	<type id="highway.primary_link" priority="7" numLanes="1" speed="22.22" disallow="tram rail_urban rail rail_electric rail_fast ship" oneway="0" />
	<type id="highway.raceway" priority="15" numLanes="2" speed="83.33" allow="vip" oneway="0" />
	<type id="highway.residential" priority="3" numLanes="1" speed="13.89" disallow="tram rail_urban rail rail_electric rail_fast ship" oneway="0" />
	<type id="highway.secondary" priority="11" numLanes="1" speed="27.78" disallow="tram rail_urban rail rail_electric rail_fast ship" oneway="0" />
	<type id="highway.secondary_link" priority="6" numLanes="1" speed="22.22" disallow="tram rail_urban rail rail_electric rail_fast ship" oneway="0" />
	<type id="highway.service" priority="1" numLanes="1" speed="5.56" allow="pedestrian delivery bicycle" oneway="0" />
	<type id="highway.stairs" priority="1" numLanes="1" speed="1.39" allow="pedestrian" oneway="1" width="2.00" />
	<type id="highway.step" priority="1" numLanes="1" speed="1.39" allow="pedestrian" oneway="1" width="2.00" />
	<type id="highway.steps" priority="1" numLanes="1" speed="1.39" allow="pedestrian" oneway="1" width="2.00" />
	<type id="highway.tertiary" priority="10" numLanes="1" speed="22.22" disallow="tram rail_urban rail rail_electric rail_fast ship" oneway="0" />
	<type id="highway.tertiary_link" priority="5" numLanes="1" speed="22.22" disallow="tram rail_urban rail rail_electric rail_fast ship" oneway="0" />
	<type id="highway.track" priority="1" numLanes="1" speed="5.56" allow="pedestrian motorcycle moped bicycle" oneway="0" />
	<type id="highway.trunk" priority="13" numLanes="2" speed="27.78" disallow="pedestrian bicycle tram rail_urban rail rail_electric rail_fast ship" oneway="0" />
	<type id="highway.trunk_link" priority="8" numLanes="1" speed="22.22" disallow="pedestrian bicycle tram rail_urban rail rail_electric rail_fast ship" oneway="0" />
	<type id="highway.unclassified" priority="4" numLanes="1" speed="13.89" disallow="tram rail_urban rail rail_electric rail_fast ship" oneway="0" />
	<type id="highway.unsurfaced" priority="1" numLanes="1" speed="8.33" disallow="tram rail_urban rail rail_electric rail_fast ship" oneway="0" />
	<type id="railway.highspeed" priority="21" numLanes="1" speed="69.44" allow="rail_fast" oneway="1" />
	<type id="railway.light_rail" priority="19" numLanes="1" speed="27.78" allow="rail_urban" oneway="1" />
	<type id="railway.preserved" priority="16" numLanes="1" speed="27.78" allow="rail" oneway="1" />
	<type id="railway.rail" priority="20" numLanes="1" speed="44.44" allow="rail" oneway="1" />
	<type id="railway.subway" priority="18" numLanes="1" speed="27.78" allow="rail_urban" oneway="1" />
	<type id="railway.tram" priority="17" numLanes="1" speed="13.89" allow="tram" oneway="1" />
	<edge id=":101_0" function="internal">
		<lane id=":101_0_0" index="0" disallow="tram rail_urban rail rail_electric rail_fast ship" speed="22.22" length="14.42" shape="1711.61,592.22 1697.37,594.49" />
	</edge>
	<edge id=":101_1" function="internal">
		<lane id=":101_1_0" index="0" disallow="tram rail_urban rail rail_electric rail_fast ship" speed="8.00" length="4.08" shape="1711.61,592.22 1707.73,592.29 1707.55,592.22" />
	</edge>
	<edge id=":101_2" function="internal">
		<lane id=":101_2_0" index="0" disallow="tram rail_urban rail rail_electric rail_fast ship" speed="3.65" length="1.44" shape="1711.61,592.22 1710.30,591.62" />
	</edge>
	<edge id=":101_9" function="internal">
		<lane id=":101_9_0" index="0" disallow="tram rail_urban rail rail_electric rail_fast ship" speed="8.00" length="10.12" shape="1707.55,592.22 1704.75,591.10 1702.68,588.64 1701.52,584.93" />
	</edge>
	<edge id=":101_10" function="internal">
		<lane id=":101_10_0" index="0" disallow="tram rail_urban rail rail_electric rail_fast ship" speed="3.65" length="3.23" shape="1710.30,591.62 1709.78,590.89 1710.05,590.04 1711.10,589.06" />
	</edge>
	<edge id=":101_3" function="internal">
		<lane id=":101_3_0" index="0" disallow="tram rail_urban rail rail_electric rail_fast ship" speed="6.51" length="9.04" shape="1704.68,584.41 1705.41,586.78 1706.73,588.34 1708.63,589.10 1711.10,589.06" />
	</edge>
	<edge id=":101_4" function="internal">
		<lane id=":101_4_0" index="0" disallow="tram rail_urban rail rail_electric rail_fast ship" speed="7.99" length="14.21" shape="1704.68,584.41 1704.75,588.31 1703.56,591.29 1701.10,593.35 1697.37,594.49" />
	</edge>
	<edge id=":101_5" function="internal">
		<lane id=":101_5_0" index="0" disallow="tram rail_urban rail rail_electric rail_fast ship" speed="3.65" length="4.67" shape="1704.68,584.41 1704.08,585.73 1703.35,586.25 1702.50,585.98 1701.52,584.93" />
	</edge>
	<edge id=":101_6" function="internal">
		<lane id=":101_6_0" index="0" disallow="tram rail_urban rail rail_electric rail_fast ship" speed="6.50" length="9.03" shape="1696.88,591.33 1699.24,590.60 1700.80,589.29 1701.56,587.40 1701.52,584.93" />
	</edge>
	<edge id=":101_7" function="internal">
		<lane id=":101_7_0" index="0" disallow="tram rail_urban rail rail_electric rail_fast ship" speed="22.22" length="14.41" shape="1696.88,591.33 1711.10,589.06" />
	</edge>
	<edge id=":101_8" function="internal">
		<lane id=":101_8_0" index="0" disallow="tram rail_urban rail rail_electric rail_fast ship" speed="3.65" length="1.44" shape="1696.88,591.33 1698.19,591.94" />
	</edge>
	<edge id=":101_11" function="internal">
		<lane id=":101_11_0" index="0" disallow="tram rail_urban rail rail_electric rail_fast ship" speed="3.65" length="3.23" shape="1698.19,591.94 1698.70,592.66 1698.43,593.52 1697.37,594.49" />
	</edge>
	<edge id=":103_0" function="internal">
		<lane id=":103_0_0" index="0" disallow="tram rail_urban rail rail_electric rail_fast ship" speed="3.91" length="2.53" shape="2204.42,247.48 2203.76,247.68 2203.32,248.05 2203.10,248.58 2203.09,249.27" />
	</edge>
	<edge id=":104_0" function="internal">
		<lane id=":104_0_0" index="0" disallow="tram rail_urban rail rail_electric rail_fast ship" speed="13.89" length="0.30" shape="1533.26,384.80 1533.22,384.50" />
	</edge>
	<edge id=":104_1" function="internal">
		<lane id=":104_1_0" index="0" disallow="tram rail_urban rail rail_electric rail_fast ship" speed="3.65" length="2.34" shape="1533.26,384.80 1533.86,383.48 1534.59,382.96" />
	</edge>
	<edge id=":104_4" function="internal">
		<lane id=":104_4_0" index="0" disallow="tram rail_urban rail rail_electric rail_fast ship" speed="3.65" length="2.34" shape="1534.59,382.96 1535.44,383.23 1536.42,384.28" />
	</edge>
	<edge id=":104_2" function="internal">
		<lane id=":104_2_0" index="0" disallow="tram rail_urban rail rail_electric rail_fast ship" speed="13.89" length="0.30" shape="1536.38,383.99 1536.42,384.28" />
	</edge>
	<edge id=":104_3" function="internal">
		<lane id=":104_3_0" index="0" disallow="tram rail_urban rail rail_electric rail_fast ship" speed="3.65" length="2.34" shape="1536.38,383.99 1535.78,385.30 1535.05,385.82" />
	</edge>
	<edge id=":104_5" function="internal">
		<lane id=":104_5_0" index="0" disallow="tram rail_urban rail rail_electric rail_fast ship" speed="3.65" length="2.34" shape="1535.05,385.82 1534.20,385.55 1533.22,384.50" />
	</edge>
	<edge id=":107_0" function="internal">
		<lane id=":107_0_0" index="0" disallow="tram rail_urban rail rail_electric rail_fast ship" speed="13.89" length="0.30" shape="947.76,196.75 948.05,196.69" />
	</edge>
	<edge id=":108_0" function="internal">
		<lane id=":108_0_0" index="0" disallow="tram rail_urban rail rail_electric rail_fast ship" speed="13.89" length="10.68" shape="2321.54,222.48 2323.11,233.04" />
	</edge>
	<edge id=":108_1" function="internal">
		<lane id=":108_1_0" index="0" disallow="tram rail_urban rail rail_electric rail_fast ship" speed="6.57" length="8.75" shape="2321.54,222.48 2321.53,224.82 2320.76,226.65 2319.25,227.97 2316.97,228.78" />
	</edge>
	<edge id=":112_0" function="internal">
		<lane id=":112_0_0" index="0" disallow="tram rail_urban rail rail_electric rail_fast ship" speed="6.51" length="8.87" shape="1406.95,310.21 1406.19,307.91 1404.87,306.39 1403.01,305.64 1400.59,305.67" />
	</edge>
	<edge id=":112_1" function="internal">
		<lane id=":112_1_0" index="0" disallow="tram rail_urban rail rail_electric rail_fast ship" speed="7.22" length="11.49" shape="1406.95,310.21 1406.62,306.43 1407.16,303.61 1408.58,301.73 1410.87,300.80" />
	</edge>
	<edge id=":113_0" function="internal">
		<lane id=":113_0_0" index="0" disallow="tram rail_urban rail rail_electric rail_fast ship" speed="27.78" length="0.31" shape="1489.79,115.20 1489.75,114.90" />
	</edge>
	<edge id=":113_1" function="internal">
		<lane id=":113_1_0" index="0" disallow="tram rail_urban rail rail_electric rail_fast ship" speed="3.65" length="2.34" shape="1489.79,115.20 1490.39,113.89 1491.12,113.37" />
	</edge>
	<edge id=":113_4" function="internal">
		<lane id=":113_4_0" index="0" disallow="tram rail_urban rail rail_electric rail_fast ship" speed="3.65" length="2.34" shape="1491.12,113.37 1491.97,113.63 1492.95,114.69" />
	</edge>
	<edge id=":113_2" function="internal">
		<lane id=":113_2_0" index="0" disallow="tram rail_urban rail rail_electric rail_fast ship" speed="27.78" length="0.28" shape="1492.91,114.41 1492.95,114.69" />
	</edge>
	<edge id=":113_3" function="internal">
		<lane id=":113_3_0" index="0" disallow="tram rail_urban rail rail_electric rail_fast ship" speed="3.65" length="2.34" shape="1492.91,114.41 1492.30,115.72 1491.57,116.24" />
	</edge>
	<edge id=":113_5" function="internal">
		<lane id=":113_5_0" index="0" disallow="tram rail_urban rail rail_electric rail_fast ship" speed="3.65" length="2.34" shape="1491.57,116.24 1490.72,115.96 1489.75,114.90" />
	</edge>
	<edge id=":116_0" function="internal">
		<lane id=":116_0_0" index="0" disallow="tram rail_urban rail rail_electric rail_fast ship" speed="13.89" length="0.29" shape="447.16,625.26 447.22,625.54" />
	</edge>
	<edge id=":117_0" function="internal">
		<lane id=":117_0_0" index="0" disallow="tram rail_urban rail rail_electric rail_fast ship" speed="27.78" length="0.31" shape="1470.97,638.11 1470.67,638.18" />
	</edge>
	<edge id=":117_1" function="internal">
		<lane id=":117_1_0" index="0" disallow="tram rail_urban rail rail_electric rail_fast ship" speed="3.65" length="2.34" shape="1470.97,638.11 1469.62,637.62 1469.03,636.94" />
	</edge>
	<edge id=":117_4" function="internal">
		<lane id=":117_4_0" index="0" disallow="tram rail_urban rail rail_electric rail_fast ship" speed="3.65" length="2.34" shape="1469.03,636.94 1469.23,636.07 1470.20,635.00" />
	</edge>
	<edge id=":117_2" function="internal">
		<lane id=":117_2_0" index="0" disallow="tram rail_urban rail rail_electric rail_fast ship" speed="27.78" length="0.25" shape="1469.95,635.06 1470.20,635.00" />
	</edge>
	<edge id=":117_3" function="internal">
		<lane id=":117_3_0" index="0" disallow="tram rail_urban rail rail_electric rail_fast ship" speed="3.65" length="2.34" shape="1469.95,635.06 1471.30,635.57 1471.87,636.26" />
	</edge>
	<edge id=":117_5" function="internal">
		<lane id=":117_5_0" index="0" disallow="tram rail_urban rail rail_electric rail_fast ship" speed="3.65" length="2.34" shape="1471.87,636.26 1471.66,637.13 1470.67,638.18" />
	</edge>
	<edge id=":120_0" function="internal">
		<lane id=":120_0_0" index="0" disallow="tram rail_urban rail rail_electric rail_fast ship" speed="13.89" length="0.30" shape="1988.43,713.85 1988.66,714.03" />
	</edge>
	<edge id=":122_0" function="internal">
		<lane id=":122_0_0" index="0" disallow="tram rail_urban rail rail_electric rail_fast ship" speed="3.91" length="2.52" shape="2211.73,313.54 2211.72,314.22 2211.50,314.75 2211.06,315.12 2210.41,315.33" />
	</edge>
	<edge id=":124_0" function="internal">
		<lane id=":124_0_0" index="0" disallow="tram rail_urban rail rail_electric rail_fast ship" speed="27.78" length="0.30" shape="1389.74,676.37 1389.48,676.53" />
	</edge>
	<edge id=":124_1" function="internal">
		<lane id=":124_1_0" index="0" disallow="tram rail_urban rail rail_electric rail_fast ship" speed="3.65" length="2.34" shape="1389.74,676.37 1388.30,676.35 1387.52,675.90" />
	</edge>
	<edge id=":124_4" function="internal">
		<lane id=":124_4_0" index="0" disallow="tram rail_urban rail rail_electric rail_fast ship" speed="3.65" length="2.34" shape="1387.52,675.90 1387.42,675.01 1387.99,673.69" />
	</edge>
	<edge id=":124_2" function="internal">
		<lane id=":124_2_0" index="0" disallow="tram rail_urban rail rail_electric rail_fast ship" speed="27.78" length="0.29" shape="1387.75,673.85 1387.99,673.69" />
	</edge>
	<edge id=":124_3" function="internal">
		<lane id=":124_3_0" index="0" disallow="tram rail_urban rail rail_electric rail_fast ship" speed="3.65" length="2.34" shape="1387.75,673.85 1389.19,673.87 1389.96,674.32" />
	</edge>
	<edge id=":124_5" function="internal">
		<lane id=":124_5_0" index="0" disallow="tram rail_urban rail rail_electric rail_fast ship" speed="3.65" length="2.34" shape="1389.96,674.32 1390.06,675.21 1389.48,676.53" />
	</edge>
	<edge id=":127_0" function="internal">
		<lane id=":127_0_0" index="0" disallow="tram rail_urban rail rail_electric rail_fast ship" speed="20.84" length="11.25" shape="1529.04,358.58 1527.32,347.46" />
	</edge>
	<edge id=":127_1" function="internal">
		<lane id=":127_1_0" index="0" disallow="tram rail_urban rail rail_electric rail_fast ship" speed="7.32" length="2.63" shape="1529.04,358.58 1529.19,356.06 1529.25,355.97" />
	</edge>
	<edge id=":127_2" function="internal">
		<lane id=":127_2_0" index="0" disallow="tram rail_urban rail rail_electric rail_fast ship" speed="3.65" length="1.44" shape="1529.04,358.58 1529.64,357.27" />
	</edge>
	<edge id=":127_6" function="internal">
		<lane id=":127_6_0" index="0" disallow="tram rail_urban rail rail_electric rail_fast ship" speed="7.32" length="9.14" shape="1529.25,355.97 1530.55,354.06 1533.11,352.60 1536.87,351.65" />
	</edge>
	<edge id=":127_7" function="internal">
		<lane id=":127_7_0" index="0" disallow="tram rail_urban rail rail_electric rail_fast ship" speed="3.65" length="3.23" shape="1529.64,357.27 1530.36,356.74 1531.22,357.01 1532.20,358.07" />
	</edge>
	<edge id=":127_3" function="internal">
		<lane id=":127_3_0" index="0" disallow="tram rail_urban rail rail_electric rail_fast ship" speed="6.49" length="9.03" shape="1530.49,346.98 1531.20,349.35 1532.50,350.92 1534.39,351.68 1536.87,351.65" />
	</edge>
	<edge id=":127_4" function="internal">
		<lane id=":127_4_0" index="0" disallow="tram rail_urban rail rail_electric rail_fast ship" speed="20.84" length="11.22" shape="1530.49,346.98 1532.20,358.07" />
	</edge>
	<edge id=":127_5" function="internal">
		<lane id=":127_5_0" index="0" disallow="tram rail_urban rail rail_electric rail_fast ship" speed="3.65" length="1.44" shape="1530.49,346.98 1529.88,348.29" />
	</edge>
	<edge id=":127_8" function="internal">
		<lane id=":127_8_0" index="0" disallow="tram rail_urban rail rail_electric rail_fast ship" speed="3.65" length="3.23" shape="1529.88,348.29 1529.14,348.80 1528.29,348.53 1527.32,347.46" />
	</edge>
	<edge id=":129_0" function="internal">
		<lane id=":129_0_0" index="0" disallow="tram rail_urban rail rail_electric rail_fast ship" speed="22.22" length="0.18" shape="1916.45,1532.35 1916.31,1532.23" />
	</edge>
	<edge id=":130_0" function="internal">
		<lane id=":130_0_0" index="0" disallow="tram rail_urban rail rail_electric rail_fast ship" speed="12.16" length="14.94" shape="1842.77,1073.43 1840.78,1079.01 1839.49,1083.26 1838.91,1086.18 1839.03,1087.77" />
	</edge>
	<edge id=":130_1" function="internal">
		<lane id=":130_1_0" index="0" disallow="tram rail_urban rail rail_electric rail_fast ship" speed="13.89" length="16.20" shape="1842.77,1073.43 1841.15,1077.03 1839.02,1080.62 1836.51,1083.93 1833.72,1086.70" />
	</edge>
	<edge id=":130_2" function="internal">
		<lane id=":130_2_0" index="0" disallow="tram rail_urban rail rail_electric rail_fast ship" speed="6.26" length="2.16" shape="1831.67,1084.24 1833.58,1083.25" />
	</edge>
	<edge id=":130_3" function="internal">
		<lane id=":130_3_0" index="0" disallow="tram rail_urban rail rail_electric rail_fast ship" speed="3.65" length="1.44" shape="1831.67,1084.24 1833.10,1084.09" />
	</edge>
	<edge id=":130_4" function="internal">
		<lane id=":130_4_0" index="0" disallow="tram rail_urban rail rail_electric rail_fast ship" speed="6.26" length="7.52" shape="1833.58,1083.25 1835.45,1083.50 1837.27,1085.01 1839.03,1087.77" />
	</edge>
	<edge id=":130_5" function="internal">
		<lane id=":130_5_0" index="0" disallow="tram rail_urban rail rail_electric rail_fast ship" speed="3.65" length="3.23" shape="1833.10,1084.09 1833.92,1084.44 1834.13,1085.31 1833.72,1086.70" />
	</edge>
	<edge id=":132_0" function="internal">
		<lane id=":132_0_0" index="0" disallow="tram rail_urban rail rail_electric rail_fast ship" speed="8.71" length="13.90" shape="1779.30,1113.37 1775.27,1115.45 1772.53,1117.77 1771.07,1120.35 1770.90,1123.16" />
	</edge>
	<edge id=":132_1" function="internal">
		<lane id=":132_1_0" index="0" disallow="tram rail_urban rail rail_electric rail_fast ship" speed="15.28" length="15.86" shape="1779.30,1113.37 1775.71,1114.88 1771.95,1116.39 1768.15,1117.77 1764.43,1118.85" />
	</edge>
	<edge id=":132_2" function="internal">
		<lane id=":132_2_0" index="0" disallow="tram rail_urban rail rail_electric rail_fast ship" speed="3.65" length="4.67" shape="1779.30,1113.37 1777.88,1113.10 1777.20,1112.52 1777.26,1111.62 1778.06,1110.42" />
	</edge>
	<edge id=":132_3" function="internal">
		<lane id=":132_3_0" index="0" disallow="tram rail_urban rail rail_electric rail_fast ship" speed="6.05" length="9.07" shape="1771.55,1106.79 1772.31,1109.25 1773.65,1110.68 1775.57,1111.07 1778.06,1110.42" />
	</edge>
	<edge id=":132_4" function="internal">
		<lane id=":132_4_0" index="0" disallow="tram rail_urban rail rail_electric rail_fast ship" speed="27.78" length="16.46" shape="1771.55,1106.79 1771.88,1112.07 1771.41,1116.16 1770.85,1119.66 1770.90,1123.16" />
	</edge>
	<edge id=":132_5" function="internal">
		<lane id=":132_5_0" index="0" disallow="tram rail_urban rail rail_electric rail_fast ship" speed="8.04" length="13.44" shape="1768.39,1107.29 1768.75,1111.84 1768.20,1115.28 1766.76,1117.62 1764.43,1118.85" />
	</edge>
	<edge id=":133_0" function="internal">
		<lane id=":133_0_0" index="0" disallow="tram rail_urban rail rail_electric rail_fast ship" speed="13.89" length="0.20" shape="1930.98,970.09 1930.92,970.10 1930.88,970.11 1930.85,970.12 1930.79,970.13" />
	</edge>
	<edge id=":134_0" function="internal">
		<lane id=":134_0_0" index="0" disallow="tram rail_urban rail rail_electric rail_fast ship" speed="3.74" length="1.00" shape="2072.23,1332.24 2072.02,1332.41 2071.83,1332.45 2071.60,1332.43 2071.30,1332.41" />
	</edge>
	<edge id=":134_1" function="internal">
		<lane id=":134_1_0" index="0" disallow="tram rail_urban rail rail_electric rail_fast ship" speed="14.73" length="1.97" shape="2069.82,1330.13 2069.41,1330.53 2069.07,1330.75 2068.70,1330.91 2068.18,1331.19" />
	</edge>
	<edge id=":135_0" function="internal">
		<lane id=":135_0_0" index="0" disallow="tram rail_urban rail rail_electric rail_fast ship" speed="3.90" length="2.58" shape="1841.90,1203.01 1841.22,1203.22 1840.78,1203.60 1840.56,1204.14 1840.58,1204.85" />
	</edge>
	<edge id=":136_0" function="internal">
		<lane id=":136_0_0" index="0" disallow="tram rail_urban rail rail_electric rail_fast ship" speed="22.23" length="8.26" shape="1765.00,1086.42 1765.98,1088.71 1767.35,1090.01 1768.68,1091.31 1769.53,1093.63" />
		<lane id=":136_0_1" index="1" disallow="tram rail_urban rail rail_electric rail_fast ship" speed="22.23" length="8.26" shape="1765.00,1086.42 1766.37,1094.10" />
	</edge>
	<edge id=":142_0" function="internal">
		<lane id=":142_0_0" index="0" disallow="tram rail_urban rail rail_electric rail_fast ship" speed="10.69" length="4.87" shape="2069.55,1337.10 2069.83,1338.45 2069.67,1339.41 2069.29,1340.40 2068.91,1341.80" />
	</edge>
	<edge id=":143_0" function="internal">
		<lane id=":143_0_0" index="0" disallow="tram rail_urban rail rail_electric rail_fast ship" speed="6.56" length="8.84" shape="2013.03,1483.13 2010.68,1482.48 2008.67,1482.71 2006.99,1483.80 2005.65,1485.76" />
	</edge>
	<edge id=":143_1" function="internal">
		<lane id=":143_1_0" index="0" disallow="tram rail_urban rail rail_electric rail_fast ship" speed="11.11" length="10.79" shape="2010.35,1476.04 2005.65,1485.76" />
	</edge>
	<edge id=":145_0" function="internal">
		<lane id=":145_0_0" index="0" disallow="tram rail_urban rail rail_electric rail_fast ship" speed="13.89" length="11.20" shape="1873.31,1369.29 1862.25,1371.06" />
	</edge>
	<edge id=":145_1" function="internal">
		<lane id=":145_1_0" index="0" disallow="tram rail_urban rail rail_electric rail_fast ship" speed="6.50" length="4.12" shape="1866.88,1364.64 1866.93,1367.12 1866.33,1368.64" />
	</edge>
	<edge id=":145_2" function="internal">
		<lane id=":145_2_0" index="0" disallow="tram rail_urban rail rail_electric rail_fast ship" speed="6.50" length="4.92" shape="1866.33,1368.64 1866.18,1369.01 1864.62,1370.33 1862.25,1371.06" />
	</edge>
	<edge id=":146_0" function="internal">
		<lane id=":146_0_0" index="0" disallow="tram rail_urban rail rail_electric rail_fast ship" speed="13.89" length="0.10" shape="1975.20,1352.95 1975.20,1352.95" />
	</edge>
	<edge id=":147_0" function="internal">
		<lane id=":147_0_0" index="0" disallow="tram rail_urban rail rail_electric rail_fast ship" speed="3.91" length="2.53" shape="1873.38,1196.27 1873.37,1196.96 1873.15,1197.49 1872.71,1197.86 1872.05,1198.07" />
	</edge>
	<edge id=":148_0" function="internal">
		<lane id=":148_0_0" index="0" disallow="tram rail_urban rail rail_electric rail_fast ship" speed="3.90" length="2.62" shape="1771.98,1445.41 1771.26,1445.51 1770.75,1445.81 1770.45,1446.32 1770.36,1447.03" />
	</edge>
	<edge id=":150_0" function="internal">
		<lane id=":150_0_0" index="0" disallow="tram rail_urban rail rail_electric rail_fast ship" speed="11.11" length="0.30" shape="2183.66,1457.19 2183.37,1457.24" />
	</edge>
	<edge id=":152_0" function="internal">
		<lane id=":152_0_0" index="0" disallow="tram rail_urban rail rail_electric rail_fast ship" speed="3.90" length="2.58" shape="358.50,1054.94 358.70,1055.62 359.07,1056.07 359.61,1056.29 360.31,1056.29" />
	</edge>
	<edge id=":153_0" function="internal">
		<lane id=":153_0_0" index="0" disallow="tram rail_urban rail rail_electric rail_fast ship" speed="13.89" length="0.10" shape="510.38,1663.87 510.38,1663.87" />
	</edge>
	<edge id=":154_0" function="internal">
		<lane id=":154_0_0" index="0" disallow="tram rail_urban rail rail_electric rail_fast ship" speed="27.78" length="0.95" shape="535.65,1825.31 535.49,1825.09 535.40,1824.92 535.35,1824.73 535.33,1824.45" />
	</edge>
	<edge id=":155_0" function="internal">
		<lane id=":155_0_0" index="0" disallow="tram rail_urban rail rail_electric rail_fast ship" speed="15.28" length="0.30" shape="581.01,1198.51 580.72,1198.55" />
	</edge>
	<edge id=":156_0" function="internal">
		<lane id=":156_0_0" index="0" disallow="tram rail_urban rail rail_electric rail_fast ship" speed="13.89" length="11.20" shape="796.49,1694.60 798.15,1705.67" />
	</edge>
	<edge id=":156_1" function="internal">
		<lane id=":156_1_0" index="0" disallow="tram rail_urban rail rail_electric rail_fast ship" speed="6.51" length="9.03" shape="796.49,1694.60 796.51,1697.07 795.73,1698.96 794.15,1700.26 791.78,1700.96" />
	</edge>
	<edge id=":16_0" function="internal">
		<lane id=":16_0_0" index="0" disallow="tram rail_urban rail rail_electric rail_fast ship" speed="13.89" length="0.10" shape="2284.64,1399.03 2284.54,1399.04" />
	</edge>
	<edge id=":160_0" function="internal">
		<lane id=":160_0_0" index="0" disallow="tram rail_urban rail rail_electric rail_fast ship" speed="13.89" length="10.91" shape="849.24,1160.56 838.43,1162.09" />
	</edge>
	<edge id=":160_1" function="internal">
		<lane id=":160_1_0" index="0" disallow="tram rail_urban rail rail_electric rail_fast ship" speed="3.65" length="4.67" shape="849.24,1160.56 847.94,1159.93 847.44,1159.19 847.73,1158.34 848.81,1157.39" />
	</edge>
	<edge id=":160_2" function="internal">
		<lane id=":160_2_0" index="0" disallow="tram rail_urban rail rail_electric rail_fast ship" speed="6.51" length="8.86" shape="842.53,1152.73 843.25,1155.04 844.54,1156.59 846.39,1157.37 848.81,1157.39" />
	</edge>
	<edge id=":160_3" function="internal">
		<lane id=":160_3_0" index="0" disallow="tram rail_urban rail rail_electric rail_fast ship" speed="7.25" length="11.51" shape="842.53,1152.73 842.79,1156.51 842.19,1159.33 840.74,1161.19 838.43,1162.09" />
	</edge>
	<edge id=":161_0" function="internal">
		<lane id=":161_0_0" index="0" disallow="tram rail_urban rail rail_electric rail_fast ship" speed="6.44" length="9.03" shape="734.68,1237.81 732.28,1238.47 730.70,1239.74 729.93,1241.62 729.97,1244.11" />
	</edge>
	<edge id=":161_1" function="internal">
		<lane id=":161_1_0" index="0" disallow="tram rail_urban rail rail_electric rail_fast ship" speed="13.89" length="11.22" shape="728.24,1233.02 729.97,1244.11" />
	</edge>
	<edge id=":162_0" function="internal">
		<lane id=":162_0_0" index="0" disallow="tram rail_urban rail rail_electric rail_fast ship" speed="6.50" length="9.02" shape="685.10,1716.37 682.71,1717.05 681.12,1718.33 680.31,1720.20 680.30,1722.66" />
	</edge>
	<edge id=":162_1" function="internal">