<?xml version="1.0" ?>
<configuration xmlns:xsi="http://www.w3.org/2001/XMLSchema-instance" xsi:noNamespaceSchemaLocation="http://sumo.dlr.de/xsd/sumoConfiguration.xsd">
  

    
  <input>
    
        
    <net-file value="\\wsl$\Ubuntu\home\svadlmat\UTC\utc/data/maps/sumo/Chodov.net.xml"/>
    
        
    <route-files value="\\wsl$\Ubuntu\home\svadlmat\UTC\utc/data/scenarios/routes/test.rou.xml"/>
    
    
  </input>
  

    
  <time>
    
        
    <begin value="0"/>
    
        
    <end value="300000"/>
    
    
  </time>
  

    
  <processing>
    
        
    <time-to-teleport value="-1"/>
    
    
  </processing>
  


    
  <pddl>
    
        
    <problem-files value=""/>
    
        
    <result-files value=""/>
    
    
  </pddl>
  


    
  <additional>
    </additional>
  


</configuration>
