<?xml version="1.0" encoding="UTF-8"?>

<!-- generated on 2022-10-07 15:20:31 by Eclipse SUMO netconvert Version 1.12.0
<configuration xmlns:xsi="http://www.w3.org/2001/XMLSchema-instance" xsi:noNamespaceSchemaLocation="http://sumo.dlr.de/xsd/netconvertConfiguration.xsd">

    <input>
        <sumo-net-file value="/home/svadlmat/UTC/utc/data/maps/sumo/Sydney.net.xml"/>
    </input>

    <output>
        <output-file value="/home/svadlmat/UTC/utc/data/scenarios/15_20_04_test/maps/networks/15_20_04_test_default_sg.net.xml"/>
    </output>

    <processing>
        <geometry.min-radius.fix.railways value="false"/>
        <geometry.max-grade.fix value="false"/>
        <offset.disable-normalization value="true"/>
        <lefthand value="false"/>
    </processing>

    <edge_removal>
        <keep-edges.explicit value="113,423,98,989,513,946,578,937,894,286,38,548,230,54,760,385,263,248,853,14,156,170,471,18,807,123,648,1032,634,228,244,213,215,400,934,831,744,103,371,1023,958,619,521,214,35,591,432,600,742,504,915,936,283,944,82,479,543,1022,910,341,774,584,680,339,425,262,192,53,407,229,93,924,483,447,245,552,10,926,128,977,236,92,1038,502,49,641,751,796,658,110,571,367,858,706,988,1028,1024,750,372,480,305,180,130,134,145,468,269,643,763,159,544,335,1005,743,686,131,433,446,1017,42,488,772,233,655,115,290,871,659,12,323,963,709,762,541,930,55,147,295,595,695,267,139,334,675,1033,960,410,864,1027,362,125,87,865,538,21,69,415,1021,292,792,968,770,406,315,645,741,357,338,51,224,469,712,1018,1058,16,101,788,832,875,386,725,886,870,2,916,884,970,608,769,1026,126,489,417,587,1004,157,984,404,907,1039,635,430,997,950,476,266,969,3,494,592,787,957,333,499,681,143,158,825,745,210,551,280,811,189,284,520,457,577,65,366,250,84,964,1013,97,416,609,550,365,375,17,124,985,217,933,563,146,50,698,114,758,307,9,331,52,867,546,342,962,136,922,1031,237,107,547,11,252,20,449,428,947,929,6,13,382,369,482,863,155,795,531,86,558,117,132,129,46,898,663,356,549,535,405,588,978,427,599,112,990,866,1041,906,48,627,62,885,585,99,7,927,1006,768,83,890,633,498,1020,90,714,1007,932,617,859,642,872,711,943,594,211,44,972,1030,955,837,253,485,583,74,216,104,411,102,254,484,77,545,133,403,730,445,516,345,647,500,878,628,384,76,232,931,332,190,5,512,710,935,439,47,1010,636,19,759,649,923,644,891,127,1002,394,696,889,511,475,111,632,279,967,664,656,285,399,455,1003,707,317,708,527,539,928,942,75,514,766,505,268,959,699,450,15,808,56,135,749,616,481,657,148,424,152,361,956,311,615,336,806,784,289,945,249,380,954,869,812,89,975,209,212,312,448,746,721,278,771,1012,426,621,925,961,1019,618,752,294,791,438,569,34,614,487,797,976,161,144,340"/>
    </edge_removal>

    <junctions>
        <no-turnarounds value="true"/>
        <junctions.corner-detail value="5"/>
        <junctions.limit-turn-speed value="5.5"/>
        <rectangular-lane-cut value="false"/>
    </junctions>

    <pedestrian>
        <walkingareas value="false"/>
    </pedestrian>

    <report>
        <aggregate-warnings value="5"/>
    </report>

</configuration>
-->

<net version="1.9" junctionCornerDetail="5" limitTurnSpeed="5.50" xmlns:xsi="http://www.w3.org/2001/XMLSchema-instance" xsi:noNamespaceSchemaLocation="http://sumo.dlr.de/xsd/net_file.xsd">

    <location netOffset="-336586.08,3754670.31" convBoundary="0.00,12.34,2341.18,2154.71" origBoundary="151.232525,-33.920080,151.266296,-33.899237" projParameter="+proj=utm +zone=56 +ellps=WGS84 +datum=WGS84 +units=m +no_defs"/>

    <type id="highway.bridleway" priority="1" numLanes="1" speed="2.78" allow="pedestrian" oneway="1" width="2.00"/>
    <type id="highway.bus_guideway" priority="1" numLanes="1" speed="27.78" allow="bus" oneway="1"/>
    <type id="highway.cycleway" priority="1" numLanes="1" speed="8.33" allow="bicycle" oneway="0" width="1.00"/>
    <type id="highway.footway" priority="1" numLanes="1" speed="2.78" allow="pedestrian" oneway="1" width="2.00"/>
    <type id="highway.ford" priority="1" numLanes="1" speed="2.78" allow="army" oneway="0"/>
    <type id="highway.living_street" priority="2" numLanes="1" speed="2.78" disallow="tram rail_urban rail rail_electric rail_fast ship" oneway="0"/>
    <type id="highway.motorway" priority="14" numLanes="2" speed="39.44" allow="private emergency authority army vip passenger hov taxi bus coach delivery truck trailer motorcycle evehicle custom1 custom2" oneway="1"/>
    <type id="highway.motorway_link" priority="9" numLanes="1" speed="22.22" allow="private emergency authority army vip passenger hov taxi bus coach delivery truck trailer motorcycle evehicle custom1 custom2" oneway="1"/>
    <type id="highway.path" priority="1" numLanes="1" speed="2.78" allow="pedestrian bicycle" oneway="0" width="2.00"/>
    <type id="highway.pedestrian" priority="1" numLanes="1" speed="2.78" allow="pedestrian" oneway="1" width="2.00"/>
    <type id="highway.primary" priority="12" numLanes="2" speed="27.78" disallow="tram rail_urban rail rail_electric rail_fast ship" oneway="0"/>
    <type id="highway.primary_link" priority="7" numLanes="1" speed="22.22" disallow="tram rail_urban rail rail_electric rail_fast ship" oneway="0"/>
    <type id="highway.raceway" priority="15" numLanes="2" speed="83.33" allow="vip" oneway="0"/>
    <type id="highway.residential" priority="3" numLanes="1" speed="13.89" disallow="tram rail_urban rail rail_electric rail_fast ship" oneway="0"/>
    <type id="highway.secondary" priority="11" numLanes="1" speed="27.78" disallow="tram rail_urban rail rail_electric rail_fast ship" oneway="0"/>
    <type id="highway.secondary_link" priority="6" numLanes="1" speed="22.22" disallow="tram rail_urban rail rail_electric rail_fast ship" oneway="0"/>
    <type id="highway.service" priority="1" numLanes="1" speed="5.56" allow="pedestrian delivery bicycle" oneway="0"/>
    <type id="highway.stairs" priority="1" numLanes="1" speed="1.39" allow="pedestrian" oneway="1" width="2.00"/>
    <type id="highway.step" priority="1" numLanes="1" speed="1.39" allow="pedestrian" oneway="1" width="2.00"/>
    <type id="highway.steps" priority="1" numLanes="1" speed="1.39" allow="pedestrian" oneway="1" width="2.00"/>
    <type id="highway.tertiary" priority="10" numLanes="1" speed="22.22" disallow="tram rail_urban rail rail_electric rail_fast ship" oneway="0"/>
    <type id="highway.tertiary_link" priority="5" numLanes="1" speed="22.22" disallow="tram rail_urban rail rail_electric rail_fast ship" oneway="0"/>
    <type id="highway.track" priority="1" numLanes="1" speed="5.56" allow="pedestrian motorcycle moped bicycle" oneway="0"/>
    <type id="highway.trunk" priority="13" numLanes="2" speed="27.78" disallow="pedestrian bicycle tram rail_urban rail rail_electric rail_fast ship" oneway="0"/>
    <type id="highway.trunk_link" priority="8" numLanes="1" speed="22.22" disallow="pedestrian bicycle tram rail_urban rail rail_electric rail_fast ship" oneway="0"/>
    <type id="highway.unclassified" priority="4" numLanes="1" speed="13.89" disallow="tram rail_urban rail rail_electric rail_fast ship" oneway="0"/>
    <type id="highway.unsurfaced" priority="1" numLanes="1" speed="8.33" disallow="tram rail_urban rail rail_electric rail_fast ship" oneway="0"/>
    <type id="railway.highspeed" priority="21" numLanes="1" speed="69.44" allow="rail_fast" oneway="1"/>
    <type id="railway.light_rail" priority="19" numLanes="1" speed="27.78" allow="rail_urban" oneway="1"/>
    <type id="railway.preserved" priority="16" numLanes="1" speed="27.78" allow="rail" oneway="1"/>
    <type id="railway.rail" priority="20" numLanes="1" speed="44.44" allow="rail" oneway="1"/>
    <type id="railway.subway" priority="18" numLanes="1" speed="27.78" allow="rail_urban" oneway="1"/>
    <type id="railway.tram" priority="17" numLanes="1" speed="13.89" allow="tram" oneway="1"/>

    <edge id=":1_0" function="internal">
        <lane id=":1_0_0" index="0" disallow="tram rail_urban rail rail_electric rail_fast ship" speed="6.12" length="10.17" shape="1580.73,1030.25 1577.77,1030.37 1575.85,1029.47 1574.98,1027.54 1575.15,1024.58"/>
    </edge>
    <edge id=":1_1" function="internal">
        <lane id=":1_1_0" index="0" disallow="tram rail_urban rail rail_electric rail_fast ship" speed="3.65" length="1.44" shape="1580.73,1030.25 1579.40,1029.68"/>
    </edge>
    <edge id=":1_4" function="internal">
        <lane id=":1_4_0" index="0" disallow="tram rail_urban rail rail_electric rail_fast ship" speed="3.65" length="3.23" shape="1579.40,1029.68 1578.87,1028.96 1579.11,1028.10 1580.15,1027.10"/>
    </edge>
    <edge id=":1_2" function="internal">
        <lane id=":1_2_0" index="0" disallow="tram rail_urban rail rail_electric rail_fast ship" speed="3.93" length="3.39" shape="1578.29,1025.21 1578.23,1026.20 1578.52,1026.84 1579.16,1027.14 1580.15,1027.10"/>
    </edge>
    <edge id=":1_3" function="internal">
        <lane id=":1_3_0" index="0" disallow="tram rail_urban rail rail_electric rail_fast ship" speed="3.65" length="1.31" shape="1578.29,1025.21 1577.37,1026.13"/>
    </edge>
    <edge id=":1_5" function="internal">
        <lane id=":1_5_0" index="0" disallow="tram rail_urban rail rail_electric rail_fast ship" speed="3.65" length="3.37" shape="1577.37,1026.13 1577.27,1026.23 1576.41,1026.46 1575.70,1025.91 1575.15,1024.58"/>
    </edge>
    <edge id=":101_0" function="internal">
        <lane id=":101_0_0" index="0" disallow="tram rail_urban rail rail_electric rail_fast ship" speed="7.33" length="7.47" shape="1708.45,592.73 1705.95,592.58 1703.96,591.23 1702.68,589.01"/>
    </edge>
    <edge id=":101_2" function="internal">
        <lane id=":101_2_0" index="0" disallow="tram rail_urban rail rail_electric rail_fast ship" speed="7.33" length="4.26" shape="1702.68,589.01 1702.48,588.68 1701.52,584.93"/>
    </edge>
    <edge id=":101_1" function="internal">
        <lane id=":101_1_0" index="0" disallow="tram rail_urban rail rail_electric rail_fast ship" speed="6.50" length="9.03" shape="1696.88,591.33 1699.24,590.60 1700.80,589.29 1701.56,587.40 1701.52,584.93"/>
    </edge>
    <edge id=":102_0" function="internal">
        <lane id=":102_0_0" index="0" disallow="tram rail_urban rail rail_electric rail_fast ship" speed="6.07" length="7.88" shape="1142.76,480.26 1142.84,482.43 1142.21,484.09 1140.86,485.23 1138.79,485.87"/>
    </edge>
    <edge id=":102_1" function="internal">
        <lane id=":102_1_0" index="0" disallow="tram rail_urban rail rail_electric rail_fast ship" speed="3.65" length="1.44" shape="1142.76,480.26 1142.19,481.59"/>
    </edge>
    <edge id=":102_4" function="internal">
        <lane id=":102_4_0" index="0" disallow="tram rail_urban rail rail_electric rail_fast ship" speed="3.65" length="3.23" shape="1142.19,481.59 1141.47,482.13 1140.61,481.88 1139.61,480.84"/>
    </edge>
    <edge id=":102_2" function="internal">
        <lane id=":102_2_0" index="0" disallow="tram rail_urban rail rail_electric rail_fast ship" speed="3.90" length="2.63" shape="1138.29,482.71 1138.98,482.50 1139.43,482.12 1139.64,481.57 1139.61,480.84"/>
    </edge>
    <edge id=":102_3" function="internal">
        <lane id=":102_3_0" index="0" disallow="tram rail_urban rail rail_electric rail_fast ship" speed="3.65" length="1.30" shape="1138.29,482.71 1139.47,483.26"/>
    </edge>
    <edge id=":102_5" function="internal">
        <lane id=":102_5_0" index="0" disallow="tram rail_urban rail rail_electric rail_fast ship" speed="3.65" length="3.37" shape="1139.47,483.26 1139.60,483.32 1140.12,484.04 1139.85,484.90 1138.79,485.87"/>
    </edge>
    <edge id=":103_0" function="internal">
        <lane id=":103_0_0" index="0" disallow="tram rail_urban rail rail_electric rail_fast ship" speed="6.45" length="9.03" shape="2200.48,253.84 2199.80,251.45 2198.52,249.87 2196.64,249.10 2194.15,249.15"/>
    </edge>
    <edge id=":103_1" function="internal">
        <lane id=":103_1_0" index="0" disallow="tram rail_urban rail rail_electric rail_fast ship" speed="3.65" length="1.44" shape="2200.48,253.84 2201.11,252.54"/>
    </edge>
    <edge id=":103_4" function="internal">
        <lane id=":103_4_0" index="0" disallow="tram rail_urban rail rail_electric rail_fast ship" speed="3.65" length="3.23" shape="2201.11,252.54 2201.85,252.04 2202.70,252.33 2203.65,253.41"/>
    </edge>
    <edge id=":103_2" function="internal">
        <lane id=":103_2_0" index="0" disallow="tram rail_urban rail rail_electric rail_fast ship" speed="6.62" length="9.17" shape="2208.37,246.83 2206.02,247.58 2204.45,248.92 2203.66,250.87 2203.65,253.41"/>
    </edge>
    <edge id=":103_3" function="internal">
        <lane id=":103_3_0" index="0" disallow="tram rail_urban rail rail_electric rail_fast ship" speed="13.89" length="14.40" shape="2208.37,246.83 2194.15,249.15"/>
    </edge>
    <edge id=":104_0" function="internal">
        <lane id=":104_0_0" index="0" disallow="tram rail_urban rail rail_electric rail_fast ship" speed="6.53" length="9.06" shape="1534.39,391.73 1533.65,389.37 1532.33,387.81 1530.43,387.05 1527.94,387.09"/>
    </edge>
    <edge id=":104_1" function="internal">
        <lane id=":104_1_0" index="0" disallow="tram rail_urban rail rail_electric rail_fast ship" speed="13.89" length="14.40" shape="1534.39,391.73 1532.09,377.52"/>
    </edge>
    <edge id=":104_2" function="internal">
        <lane id=":104_2_0" index="0" disallow="tram rail_urban rail rail_electric rail_fast ship" speed="7.99" length="4.06" shape="1535.25,377.01 1535.32,380.91 1535.26,381.06"/>
    </edge>
    <edge id=":104_3" function="internal">
        <lane id=":104_3_0" index="0" disallow="tram rail_urban rail rail_electric rail_fast ship" speed="3.65" length="1.44" shape="1535.25,377.01 1534.65,378.32"/>
    </edge>
    <edge id=":104_6" function="internal">
        <lane id=":104_6_0" index="0" disallow="tram rail_urban rail rail_electric rail_fast ship" speed="7.99" length="10.15" shape="1535.26,381.06 1534.13,383.89 1531.66,385.95 1527.94,387.09"/>
    </edge>
    <edge id=":104_7" function="internal">
        <lane id=":104_7_0" index="0" disallow="tram rail_urban rail rail_electric rail_fast ship" speed="3.65" length="3.23" shape="1534.65,378.32 1533.93,378.85 1533.07,378.58 1532.09,377.52"/>
    </edge>
    <edge id=":104_4" function="internal">
        <lane id=":104_4_0" index="0" disallow="tram rail_urban rail rail_electric rail_fast ship" speed="6.50" length="9.03" shape="1527.44,383.92 1529.81,383.20 1531.38,381.89 1532.14,380.00 1532.09,377.52"/>
    </edge>
    <edge id=":104_5" function="internal">
        <lane id=":104_5_0" index="0" disallow="tram rail_urban rail rail_electric rail_fast ship" speed="3.65" length="4.67" shape="1527.44,383.92 1528.75,384.53 1529.27,385.26 1529.00,386.11 1527.94,387.09"/>
    </edge>
    <edge id=":105_0" function="internal">
        <lane id=":105_0_0" index="0" disallow="tram rail_urban rail rail_electric rail_fast ship" speed="13.89" length="9.41" shape="2229.50,381.64 2220.22,383.16"/>
    </edge>
    <edge id=":105_1" function="internal">
        <lane id=":105_1_0" index="0" disallow="tram rail_urban rail rail_electric rail_fast ship" speed="6.21" length="7.84" shape="2229.50,381.64 2226.77,381.88 2224.73,381.62 2223.36,380.83 2222.69,379.54"/>
    </edge>
    <edge id=":105_2" function="internal">
        <lane id=":105_2_0" index="0" disallow="tram rail_urban rail rail_electric rail_fast ship" speed="6.03" length="1.04" shape="2225.81,378.86 2225.76,379.90"/>
    </edge>
    <edge id=":105_3" function="internal">
        <lane id=":105_3_0" index="0" disallow="tram rail_urban rail rail_electric rail_fast ship" speed="3.65" length="1.09" shape="2225.81,378.86 2225.42,379.87"/>
    </edge>
    <edge id=":105_4" function="internal">
        <lane id=":105_4_0" index="0" disallow="tram rail_urban rail rail_electric rail_fast ship" speed="6.03" length="6.86" shape="2225.76,379.90 2225.73,380.35 2224.77,381.57 2222.93,382.50 2220.22,383.16"/>
    </edge>
    <edge id=":105_5" function="internal">
        <lane id=":105_5_0" index="0" disallow="tram rail_urban rail rail_electric rail_fast ship" speed="3.65" length="3.59" shape="2225.42,379.87 2225.29,380.20 2224.59,380.76 2223.72,380.54 2222.69,379.54"/>
    </edge>
    <edge id=":107_0" function="internal">
        <lane id=":107_0_0" index="0" disallow="tram rail_urban rail rail_electric rail_fast ship" speed="13.89" length="0.29" shape="948.66,199.83 948.37,199.89"/>
    </edge>
    <edge id=":107_1" function="internal">
        <lane id=":107_1_0" index="0" disallow="tram rail_urban rail rail_electric rail_fast ship" speed="3.65" length="2.34" shape="948.66,199.83 947.33,199.27 946.79,198.57"/>
    </edge>
    <edge id=":107_4" function="internal">
        <lane id=":107_4_0" index="0" disallow="tram rail_urban rail rail_electric rail_fast ship" speed="3.65" length="2.34" shape="946.79,198.57 947.03,197.70 948.05,196.69"/>
    </edge>
    <edge id=":107_2" function="internal">
        <lane id=":107_2_0" index="0" disallow="tram rail_urban rail rail_electric rail_fast ship" speed="13.89" length="0.31" shape="947.75,196.75 948.05,196.69"/>
    </edge>
    <edge id=":107_3" function="internal">
        <lane id=":107_3_0" index="0" disallow="tram rail_urban rail rail_electric rail_fast ship" speed="3.65" length="2.34" shape="947.75,196.75 949.08,197.30 949.63,198.01"/>
    </edge>
    <edge id=":107_5" function="internal">
        <lane id=":107_5_0" index="0" disallow="tram rail_urban rail rail_electric rail_fast ship" speed="3.65" length="2.34" shape="949.63,198.01 949.40,198.87 948.37,199.89"/>
    </edge>
    <edge id=":108_0" function="internal">
        <lane id=":108_0_0" index="0" disallow="tram rail_urban rail rail_electric rail_fast ship" speed="13.89" length="10.68" shape="2321.54,222.48 2323.11,233.04"/>
    </edge>
    <edge id=":108_1" function="internal">
        <lane id=":108_1_0" index="0" disallow="tram rail_urban rail rail_electric rail_fast ship" speed="6.57" length="8.75" shape="2321.54,222.48 2321.53,224.82 2320.76,226.65 2319.25,227.97 2316.97,228.78"/>
    </edge>
    <edge id=":109_0" function="internal">
        <lane id=":109_0_0" index="0" disallow="tram rail_urban rail rail_electric rail_fast ship" speed="6.08" length="7.78" shape="1135.06,456.23 1134.98,454.10 1135.59,452.45 1136.92,451.30 1138.95,450.63"/>
    </edge>
    <edge id=":109_1" function="internal">
        <lane id=":109_1_0" index="0" disallow="tram rail_urban rail rail_electric rail_fast ship" speed="3.65" length="1.44" shape="1135.06,456.23 1135.63,454.91"/>
    </edge>
    <edge id=":109_4" function="internal">
        <lane id=":109_4_0" index="0" disallow="tram rail_urban rail rail_electric rail_fast ship" speed="3.65" length="3.23" shape="1135.63,454.91 1136.35,454.37 1137.20,454.61 1138.21,455.65"/>
    </edge>
    <edge id=":109_2" function="internal">
        <lane id=":109_2_0" index="0" disallow="tram rail_urban rail rail_electric rail_fast ship" speed="3.90" length="2.59" shape="1139.50,453.78 1138.83,454.01 1138.39,454.39 1138.18,454.94 1138.21,455.65"/>
    </edge>
    <edge id=":109_3" function="internal">
        <lane id=":109_3_0" index="0" disallow="tram rail_urban rail rail_electric rail_fast ship" speed="3.65" length="1.30" shape="1139.50,453.78 1138.31,453.26"/>
    </edge>
    <edge id=":109_5" function="internal">
        <lane id=":109_5_0" index="0" disallow="tram rail_urban rail rail_electric rail_fast ship" speed="3.65" length="3.37" shape="1138.31,453.26 1138.18,453.20 1137.65,452.49 1137.90,451.63 1138.95,450.63"/>
    </edge>
    <edge id=":110_0" function="internal">
        <lane id=":110_0_0" index="0" disallow="tram rail_urban rail rail_electric rail_fast ship" speed="13.89" length="0.10" shape="1704.03,238.50 1704.03,238.50"/>
    </edge>
    <edge id=":112_0" function="internal">
        <lane id=":112_0_0" index="0" disallow="tram rail_urban rail rail_electric rail_fast ship" speed="6.60" length="9.13" shape="1406.99,310.43 1406.20,308.04 1404.86,306.45 1402.95,305.66 1400.49,305.68"/>
    </edge>
    <edge id=":112_1" function="internal">
        <lane id=":112_1_0" index="0" disallow="tram rail_urban rail rail_electric rail_fast ship" speed="7.98" length="14.25" shape="1406.99,310.43 1406.85,306.53 1408.00,303.53 1410.44,301.44 1414.17,300.26"/>
    </edge>
    <edge id=":112_2" function="internal">
        <lane id=":112_2_0" index="0" disallow="tram rail_urban rail rail_electric rail_fast ship" speed="3.65" length="4.67" shape="1406.99,310.43 1407.56,309.11 1408.28,308.58 1409.14,308.83 1410.14,309.87"/>
    </edge>
    <edge id=":112_3" function="internal">
        <lane id=":112_3_0" index="0" disallow="tram rail_urban rail rail_electric rail_fast ship" speed="6.48" length="9.03" shape="1414.69,303.42 1412.32,304.16 1410.78,305.49 1410.05,307.39 1410.14,309.87"/>
    </edge>
    <edge id=":112_4" function="internal">
        <lane id=":112_4_0" index="0" disallow="tram rail_urban rail rail_electric rail_fast ship" speed="13.89" length="14.38" shape="1414.69,303.42 1400.49,305.68"/>
    </edge>
    <edge id=":112_5" function="internal">
        <lane id=":112_5_0" index="0" disallow="tram rail_urban rail rail_electric rail_fast ship" speed="3.65" length="1.44" shape="1414.69,303.42 1413.37,302.82"/>
    </edge>
    <edge id=":112_9" function="internal">
        <lane id=":112_9_0" index="0" disallow="tram rail_urban rail rail_electric rail_fast ship" speed="3.65" length="3.23" shape="1413.37,302.82 1412.85,302.10 1413.11,301.24 1414.17,300.26"/>
    </edge>
    <edge id=":112_6" function="internal">
        <lane id=":112_6_0" index="0" disallow="tram rail_urban rail rail_electric rail_fast ship" speed="13.89" length="14.35" shape="1400.00,302.52 1414.17,300.26"/>
    </edge>
    <edge id=":112_7" function="internal">
        <lane id=":112_7_0" index="0" disallow="tram rail_urban rail rail_electric rail_fast ship" speed="8.08" length="3.99" shape="1400.00,302.52 1403.85,302.49 1403.98,302.54"/>
    </edge>
    <edge id=":112_8" function="internal">
        <lane id=":112_8_0" index="0" disallow="tram rail_urban rail rail_electric rail_fast ship" speed="3.65" length="1.44" shape="1400.00,302.52 1401.31,303.13"/>
    </edge>
    <edge id=":112_10" function="internal">
        <lane id=":112_10_0" index="0" disallow="tram rail_urban rail rail_electric rail_fast ship" speed="8.08" length="10.21" shape="1403.98,302.54 1406.82,303.70 1408.92,306.16 1410.14,309.87"/>
    </edge>
    <edge id=":112_11" function="internal">
        <lane id=":112_11_0" index="0" disallow="tram rail_urban rail rail_electric rail_fast ship" speed="3.65" length="3.23" shape="1401.31,303.13 1401.82,303.86 1401.55,304.71 1400.49,305.68"/>
    </edge>
    <edge id=":113_0" function="internal">
        <lane id=":113_0_0" index="0" disallow="tram rail_urban rail rail_electric rail_fast ship" speed="27.78" length="0.30" shape="1489.79,115.20 1489.75,114.90"/>
    </edge>
    <edge id=":114_0" function="internal">
        <lane id=":114_0_0" index="0" disallow="tram rail_urban rail rail_electric rail_fast ship" speed="4.00" length="1.74" shape="2078.36,177.96 2078.16,178.37 2077.89,178.68 2077.53,178.90 2077.10,179.02"/>
    </edge>
    <edge id=":116_0" function="internal">
        <lane id=":116_0_0" index="0" disallow="tram rail_urban rail rail_electric rail_fast ship" speed="13.89" length="0.31" shape="444.09,626.21 444.02,625.90"/>
    </edge>
    <edge id=":116_1" function="internal">
        <lane id=":116_1_0" index="0" disallow="tram rail_urban rail rail_electric rail_fast ship" speed="3.65" length="2.34" shape="444.09,626.21 444.61,624.87 445.31,624.31"/>
    </edge>
    <edge id=":116_4" function="internal">
        <lane id=":116_4_0" index="0" disallow="tram rail_urban rail rail_electric rail_fast ship" speed="3.65" length="2.34" shape="445.31,624.31 446.18,624.53 447.21,625.53"/>
    </edge>
    <edge id=":116_2" function="internal">
        <lane id=":116_2_0" index="0" disallow="tram rail_urban rail rail_electric rail_fast ship" speed="13.89" length="0.26" shape="447.16,625.27 447.21,625.53"/>
    </edge>
    <edge id=":116_3" function="internal">
        <lane id=":116_3_0" index="0" disallow="tram rail_urban rail rail_electric rail_fast ship" speed="3.65" length="2.34" shape="447.16,625.27 446.61,626.61 445.91,627.16"/>
    </edge>
    <edge id=":116_5" function="internal">
        <lane id=":116_5_0" index="0" disallow="tram rail_urban rail rail_electric rail_fast ship" speed="3.65" length="2.34" shape="445.91,627.16 445.04,626.92 444.02,625.90"/>
    </edge>
    <edge id=":117_0" function="internal">
        <lane id=":117_0_0" index="0" disallow="tram rail_urban rail rail_electric rail_fast ship" speed="6.30" length="7.86" shape="1469.14,638.53 1469.30,637.07 1470.26,635.80 1472.04,634.75 1474.63,633.89"/>
    </edge>
    <edge id=":117_1" function="internal">
        <lane id=":117_1_0" index="0" disallow="tram rail_urban rail rail_electric rail_fast ship" speed="3.65" length="4.67" shape="1469.14,638.53 1469.74,637.22 1470.47,636.70 1471.32,636.96 1472.30,638.02"/>
    </edge>
    <edge id=":117_2" function="internal">
        <lane id=":117_2_0" index="0" disallow="tram rail_urban rail rail_electric rail_fast ship" speed="27.78" length="9.39" shape="1465.50,636.08 1474.63,633.89"/>
    </edge>
    <edge id=":117_3" function="internal">
        <lane id=":117_3_0" index="0" disallow="tram rail_urban rail rail_electric rail_fast ship" speed="6.02" length="7.94" shape="1465.50,636.08 1468.27,635.67 1470.33,635.85 1471.67,636.64 1472.30,638.02"/>
    </edge>
    <edge id=":118_0" function="internal">
        <lane id=":118_0_0" index="0" disallow="tram rail_urban rail rail_electric rail_fast ship" speed="3.97" length="1.91" shape="2087.80,187.57 2087.78,187.07 2087.90,186.63 2088.15,186.26 2088.55,185.95"/>
    </edge>
    <edge id=":119_0" function="internal">
        <lane id=":119_0_0" index="0" disallow="tram rail_urban rail rail_electric rail_fast ship" speed="13.89" length="0.26" shape="1813.76,222.84 1813.50,222.88"/>
    </edge>
    <edge id=":120_0" function="internal">
        <lane id=":120_0_0" index="0" disallow="tram rail_urban rail rail_electric rail_fast ship" speed="13.89" length="0.30" shape="1986.71,716.57 1986.48,716.39"/>
    </edge>
    <edge id=":122_0" function="internal">
        <lane id=":122_0_0" index="0" disallow="tram rail_urban rail rail_electric rail_fast ship" speed="6.55" length="8.86" shape="2210.03,320.82 2209.20,318.59 2207.83,317.12 2205.92,316.43 2203.48,316.51"/>
    </edge>
    <edge id=":122_1" function="internal">
        <lane id=":122_1_0" index="0" disallow="tram rail_urban rail rail_electric rail_fast ship" speed="13.89" length="10.96" shape="2210.03,320.82 2208.03,310.04"/>
    </edge>
    <edge id=":122_2" function="internal">
        <lane id=":122_2_0" index="0" disallow="tram rail_urban rail rail_electric rail_fast ship" speed="3.65" length="1.44" shape="2210.03,320.82 2210.56,319.48"/>
    </edge>
    <edge id=":122_6" function="internal">
        <lane id=":122_6_0" index="0" disallow="tram rail_urban rail rail_electric rail_fast ship" speed="3.65" length="3.23" shape="2210.56,319.48 2211.26,318.92 2212.12,319.14 2213.16,320.15"/>
    </edge>
    <edge id=":122_3" function="internal">
        <lane id=":122_3_0" index="0" disallow="tram rail_urban rail rail_electric rail_fast ship" speed="13.89" length="10.71" shape="2211.20,309.62 2213.16,320.15"/>
    </edge>
    <edge id=":122_4" function="internal">
        <lane id=":122_4_0" index="0" disallow="tram rail_urban rail rail_electric rail_fast ship" speed="7.37" length="2.48" shape="2211.20,309.62 2210.99,312.09"/>
    </edge>
    <edge id=":122_5" function="internal">
        <lane id=":122_5_0" index="0" disallow="tram rail_urban rail rail_electric rail_fast ship" speed="3.65" length="1.44" shape="2211.20,309.62 2210.57,310.91"/>
    </edge>
    <edge id=":122_7" function="internal">
        <lane id=":122_7_0" index="0" disallow="tram rail_urban rail rail_electric rail_fast ship" speed="7.37" length="9.08" shape="2210.99,312.09 2209.63,314.07 2207.13,315.54 2203.48,316.51"/>
    </edge>
    <edge id=":122_8" function="internal">
        <lane id=":122_8_0" index="0" disallow="tram rail_urban rail rail_electric rail_fast ship" speed="3.65" length="3.23" shape="2210.57,310.91 2209.83,311.42 2208.98,311.13 2208.03,310.04"/>
    </edge>
    <edge id=":124_0" function="internal">
        <lane id=":124_0_0" index="0" disallow="tram rail_urban rail rail_electric rail_fast ship" speed="27.78" length="0.30" shape="1387.74,673.85 1387.99,673.69"/>
    </edge>
    <edge id=":127_0" function="internal">
        <lane id=":127_0_0" index="0" disallow="tram rail_urban rail rail_electric rail_fast ship" speed="20.84" length="14.45" shape="1529.55,361.74 1527.32,347.46"/>
    </edge>
    <edge id=":127_1" function="internal">
        <lane id=":127_1_0" index="0" disallow="tram rail_urban rail rail_electric rail_fast ship" speed="8.00" length="4.12" shape="1529.55,361.74 1529.48,357.84 1529.56,357.64"/>
    </edge>
    <edge id=":127_2" function="internal">
        <lane id=":127_2_0" index="0" disallow="tram rail_urban rail rail_electric rail_fast ship" speed="3.65" length="1.44" shape="1529.55,361.74 1530.15,360.43"/>
    </edge>
    <edge id=":127_9" function="internal">
        <lane id=":127_9_0" index="0" disallow="tram rail_urban rail rail_electric rail_fast ship" speed="8.00" length="10.11" shape="1529.56,357.64 1530.67,354.85 1533.14,352.79 1536.87,351.65"/>
    </edge>
    <edge id=":127_10" function="internal">
        <lane id=":127_10_0" index="0" disallow="tram rail_urban rail rail_electric rail_fast ship" speed="3.65" length="3.23" shape="1530.15,360.43 1530.87,359.90 1531.73,360.17 1532.71,361.23"/>
    </edge>
    <edge id=":127_3" function="internal">