<?xml version="1.0" encoding="UTF-8"?>
<routes>
	<vType accel="3.0" decel="6.0" id="CarDefault" length="4.5" minGap="2.5" maxSpeed="50.0" sigma="0.5" />
	<route id="r230" edges="132 133 43 153 144 145 47 56 170 74"/>
	<route id="r231" edges="84 85 86 87 88 153 144 159"/>
	<route id="r232" edges="154 41 40 39 38 9 160 161"/>

	<vehicle id="car0" depart="0.0" route="r231" type="CarDefault" departLane="random"/>
	<vehicle id="car1" depart="0.0" route="r231" type="CarDefault" departLane="random"/>
	<vehicle id="car2" depart="0.0" route="r231" type="CarDefault" departLane="random"/>
	<vehicle id="car3" depart="0.0" route="r231" type="CarDefault" departLane="random"/>
	<vehicle id="car4" depart="0.0" route="r231" type="CarDefault" departLane="random"/>
	<vehicle id="car5" depart="0.0" route="r231" type="CarDefault" departLane="random"/>
	<vehicle id="car6" depart="0.0" route="r231" type="CarDefault" departLane="random"/>
	<vehicle id="car7" depart="0.0" route="r231" type="CarDefault" departLane="random"/>
	<vehicle id="car8" depart="0.0" route="r231" type="CarDefault" departLane="random"/>
	<vehicle id="car9" depart="0.0" route="r231" type="CarDefault" departLane="random"/>

	<vehicle id="car18" depart="10.0" route="r230" type="CarDefault" departLane="random"/>
	<vehicle id="car19" depart="10.0" route="r230" type="CarDefault" departLane="random"/>
	<vehicle id="car20" depart="10.0" route="r230" type="CarDefault" departLane="random"/>
	<vehicle id="car21" depart="10.0" route="r230" type="CarDefault" departLane="random"/>
	<vehicle id="car22" depart="10.0" route="r230" type="CarDefault" departLane="random"/>
	<vehicle id="car23" depart="10.0" route="r230" type="CarDefault" departLane="random"/>
	<vehicle id="car24" depart="10.0" route="r230" type="CarDefault" departLane="random"/>
	<vehicle id="car25" depart="10.0" route="r230" type="CarDefault" departLane="random"/>
	<vehicle id="car26" depart="10.0" route="r230" type="CarDefault" departLane="random"/>
	<vehicle id="car27" depart="10.0" route="r230" type="CarDefault" departLane="random"/>
	<vehicle id="car28" depart="10.0" route="r230" type="CarDefault" departLane="random"/>
	<vehicle id="car29" depart="10.0" route="r230" type="CarDefault" departLane="random"/>
	<vehicle id="car30" depart="10.0" route="r230" type="CarDefault" departLane="random"/>
	<vehicle id="car31" depart="10.0" route="r230" type="CarDefault" departLane="random"/>
	<vehicle id="car32" depart="10.0" route="r230" type="CarDefault" departLane="random"/>

	<vehicle id="car10" depart="20.0" route="r232" type="CarDefault" departLane="random"/>
	<vehicle id="car11" depart="20.0" route="r232" type="CarDefault" departLane="random"/>
	<vehicle id="car12" depart="20.0" route="r232" type="CarDefault" departLane="random"/>
	<vehicle id="car13" depart="20.0" route="r232" type="CarDefault" departLane="random"/>
	<vehicle id="car14" depart="20.0" route="r232" type="CarDefault" departLane="random"/>
	<vehicle id="car15" depart="20.0" route="r232" type="CarDefault" departLane="random"/>
	<vehicle id="car16" depart="20.0" route="r232" type="CarDefault" departLane="random"/>
	<vehicle id="car17" depart="20.0" route="r232" type="CarDefault" departLane="random"/>
	<vehicle id="car33" depart="20.0" route="r232" type="CarDefault" departLane="random"/>
	<vehicle id="car34" depart="20.0" route="r232" type="CarDefault" departLane="random"/>
	<vehicle id="car35" depart="20.0" route="r232" type="CarDefault" departLane="random"/>
	<vehicle id="car36" depart="20.0" route="r232" type="CarDefault" departLane="random"/>
	<vehicle id="car37" depart="20.0" route="r232" type="CarDefault" departLane="random"/>
</routes>
