<?xml version="1.0" encoding="UTF-8"?>

<!-- generated on 2021-11-27 17:00:35 by Eclipse SUMO netedit Version 1.9.2
<configuration xmlns:xsi="http://www.w3.org/2001/XMLSchema-instance" xsi:noNamespaceSchemaLocation="http://sumo.dlr.de/xsd/netconvertConfiguration.xsd">

    <input>
        <sumo-net-file value="C:\Users\Mates\Desktop\SemProjekt\SUMO_python\maps\sumo\berlin.net.xml"/>
    </input>

    <output>
        <output-file value="C:\Users\Mates\Desktop\SemProjekt\SUMO_python\maps\sumo\berlin.net.xml"/>
    </output>

    <processing>
        <geometry.min-radius.fix.railways value="false"/>
        <geometry.max-grade.fix value="false"/>
        <offset.disable-normalization value="true"/>
        <lefthand value="false"/>
    </processing>

    <junctions>
        <no-turnarounds value="true"/>
        <junctions.corner-detail value="5"/>
        <junctions.limit-turn-speed value="5.5"/>
        <rectangular-lane-cut value="false"/>
    </junctions>

    <pedestrian>
        <walkingareas value="false"/>
    </pedestrian>

    <report>
        <aggregate-warnings value="5"/>
    </report>

</configuration>
-->

<net version="1.9" junctionCornerDetail="5" limitTurnSpeed="5.50" xmlns:xsi="http://www.w3.org/2001/XMLSchema-instance" xsi:noNamespaceSchemaLocation="http://sumo.dlr.de/xsd/net_file.xsd">

    <location netOffset="-389826.94,-5817768.79" convBoundary="0.00,0.00,2008.01,1764.98" origBoundary="13.376844,52.499173,13.406452,52.514997" projParameter="+proj=utm +zone=33 +ellps=WGS84 +datum=WGS84 +units=m +no_defs"/>

    <type id="highway.bridleway" priority="1" numLanes="1" speed="2.78" allow="pedestrian" oneway="1" width="2.00"/>
    <type id="highway.bus_guideway" priority="1" numLanes="1" speed="27.78" allow="bus" oneway="1"/>
    <type id="highway.cycleway" priority="1" numLanes="1" speed="8.33" allow="bicycle" oneway="1" width="1.00"/>
    <type id="highway.footway" priority="1" numLanes="1" speed="2.78" allow="pedestrian" oneway="1" width="2.00"/>
    <type id="highway.ford" priority="1" numLanes="1" speed="2.78" allow="army" oneway="1"/>
    <type id="highway.living_street" priority="2" numLanes="1" speed="2.78" disallow="tram rail_urban rail rail_electric rail_fast ship" oneway="1"/>
    <type id="highway.motorway" priority="14" numLanes="2" speed="39.44" allow="private emergency authority army vip passenger hov taxi bus coach delivery truck trailer motorcycle evehicle custom1 custom2" oneway="1"/>
    <type id="highway.motorway_link" priority="9" numLanes="1" speed="22.22" allow="private emergency authority army vip passenger hov taxi bus coach delivery truck trailer motorcycle evehicle custom1 custom2" oneway="1"/>
    <type id="highway.path" priority="1" numLanes="1" speed="2.78" allow="pedestrian bicycle" oneway="1" width="2.00"/>
    <type id="highway.pedestrian" priority="1" numLanes="1" speed="2.78" allow="pedestrian" oneway="1" width="2.00"/>
    <type id="highway.primary" priority="12" numLanes="2" speed="27.78" disallow="tram rail_urban rail rail_electric rail_fast ship" oneway="1"/>
    <type id="highway.primary_link" priority="7" numLanes="1" speed="22.22" disallow="tram rail_urban rail rail_electric rail_fast ship" oneway="1"/>
    <type id="highway.raceway" priority="15" numLanes="2" speed="83.33" allow="vip" oneway="1"/>
    <type id="highway.residential" priority="3" numLanes="1" speed="13.89" disallow="tram rail_urban rail rail_electric rail_fast ship" oneway="1"/>
    <type id="highway.secondary" priority="11" numLanes="1" speed="27.78" disallow="tram rail_urban rail rail_electric rail_fast ship" oneway="1"/>
    <type id="highway.secondary_link" priority="6" numLanes="1" speed="22.22" disallow="tram rail_urban rail rail_electric rail_fast ship" oneway="1"/>
    <type id="highway.service" priority="1" numLanes="1" speed="5.56" allow="pedestrian delivery bicycle" oneway="1"/>
    <type id="highway.stairs" priority="1" numLanes="1" speed="1.39" allow="pedestrian" oneway="1" width="2.00"/>
    <type id="highway.step" priority="1" numLanes="1" speed="1.39" allow="pedestrian" oneway="1" width="2.00"/>
    <type id="highway.steps" priority="1" numLanes="1" speed="1.39" allow="pedestrian" oneway="1" width="2.00"/>
    <type id="highway.tertiary" priority="10" numLanes="1" speed="22.22" disallow="tram rail_urban rail rail_electric rail_fast ship" oneway="1"/>
    <type id="highway.tertiary_link" priority="5" numLanes="1" speed="22.22" disallow="tram rail_urban rail rail_electric rail_fast ship" oneway="1"/>
    <type id="highway.track" priority="1" numLanes="1" speed="5.56" allow="pedestrian motorcycle moped bicycle" oneway="1"/>
    <type id="highway.trunk" priority="13" numLanes="2" speed="27.78" disallow="pedestrian bicycle tram rail_urban rail rail_electric rail_fast ship" oneway="1"/>
    <type id="highway.trunk_link" priority="8" numLanes="1" speed="22.22" disallow="pedestrian bicycle tram rail_urban rail rail_electric rail_fast ship" oneway="1"/>
    <type id="highway.unclassified" priority="4" numLanes="1" speed="13.89" disallow="tram rail_urban rail rail_electric rail_fast ship" oneway="1"/>
    <type id="highway.unsurfaced" priority="1" numLanes="1" speed="8.33" disallow="tram rail_urban rail rail_electric rail_fast ship" oneway="1"/>
    <type id="railway.highspeed" priority="21" numLanes="1" speed="69.44" allow="rail_fast" oneway="1"/>
    <type id="railway.light_rail" priority="19" numLanes="1" speed="27.78" allow="rail_urban" oneway="1"/>
    <type id="railway.preserved" priority="16" numLanes="1" speed="27.78" allow="rail" oneway="1"/>
    <type id="railway.rail" priority="20" numLanes="1" speed="44.44" allow="rail" oneway="1"/>
    <type id="railway.subway" priority="18" numLanes="1" speed="27.78" allow="rail_urban" oneway="1"/>
    <type id="railway.tram" priority="17" numLanes="1" speed="13.89" allow="tram" oneway="1"/>

    <edge id=":1141824924_0" function="internal">
        <lane id=":1141824924_0_0" index="0" disallow="tram rail_urban rail rail_electric rail_fast ship" speed="8.33" length="8.31" shape="1077.05,1270.09 1079.34,1270.48 1081.02,1269.94 1082.72,1269.35 1085.07,1269.55"/>
        <lane id=":1141824924_0_1" index="1" disallow="tram rail_urban rail rail_electric rail_fast ship" speed="8.33" length="8.31" shape="1075.86,1273.06 1078.21,1273.47 1079.95,1272.96 1081.70,1272.38 1084.13,1272.61"/>
        <lane id=":1141824924_0_2" index="2" disallow="tram rail_urban rail rail_electric rail_fast ship" speed="8.33" length="8.31" shape="1075.86,1273.06 1083.18,1275.67"/>
        <lane id=":1141824924_0_3" index="3" disallow="tram rail_urban rail rail_electric rail_fast ship" speed="8.33" length="8.31" shape="1075.86,1273.06 1077.95,1274.44 1079.00,1276.02 1080.07,1277.53 1082.23,1278.73"/>
    </edge>
    <edge id=":1263283302_0" function="internal">
        <lane id=":1263283302_0_0" index="0" disallow="tram rail_urban rail rail_electric rail_fast ship" speed="8.33" length="0.29" shape="1146.09,1297.61 1145.76,1297.58"/>
        <lane id=":1263283302_0_1" index="1" disallow="tram rail_urban rail rail_electric rail_fast ship" speed="8.33" length="0.29" shape="1146.35,1294.42 1146.05,1294.40"/>
        <lane id=":1263283302_0_2" index="2" disallow="tram rail_urban rail rail_electric rail_fast ship" speed="8.33" length="0.29" shape="1146.61,1291.23 1146.35,1291.21"/>
    </edge>
    <edge id=":1263283307_0" function="internal">
        <lane id=":1263283307_0_0" index="0" disallow="tram rail_urban rail rail_electric rail_fast ship" speed="13.89" length="0.30" shape="1186.89,1279.58 1187.19,1279.60"/>
        <lane id=":1263283307_0_1" index="1" disallow="tram rail_urban rail rail_electric rail_fast ship" speed="13.89" length="0.30" shape="1186.61,1282.77 1186.91,1282.79"/>
        <lane id=":1263283307_0_2" index="2" disallow="tram rail_urban rail rail_electric rail_fast ship" speed="13.89" length="0.30" shape="1186.33,1285.95 1186.63,1285.98"/>
    </edge>
    <edge id=":1419061103_0" function="internal">
        <lane id=":1419061103_0_0" index="0" disallow="tram rail_urban rail rail_electric rail_fast ship" speed="6.42" length="9.04" shape="324.97,578.40 322.78,577.22 320.76,577.05 318.91,577.89 317.24,579.73"/>
    </edge>
    <edge id=":1419061103_1" function="internal">
        <lane id=":1419061103_1_0" index="0" disallow="tram rail_urban rail rail_electric rail_fast ship" speed="13.89" length="11.29" shape="324.97,578.40 315.94,571.64"/>
    </edge>
    <edge id=":1419061103_2" function="internal">
        <lane id=":1419061103_2_0" index="0" disallow="tram rail_urban rail rail_electric rail_fast ship" speed="3.65" length="2.34" shape="324.97,578.40 324.48,577.05 324.64,576.17"/>
    </edge>
    <edge id=":1419061103_9" function="internal">
        <lane id=":1419061103_9_0" index="0" disallow="tram rail_urban rail rail_electric rail_fast ship" speed="3.65" length="2.34" shape="324.64,576.17 325.43,575.76 326.87,575.83"/>
    </edge>
    <edge id=":1419061103_3" function="internal">
        <lane id=":1419061103_3_0" index="0" disallow="tram rail_urban rail rail_electric rail_fast ship" speed="6.43" length="9.05" shape="325.83,568.03 324.57,570.18 324.33,572.19 325.10,574.08 326.87,575.83"/>
    </edge>
    <edge id=":1419061103_4" function="internal">
        <lane id=":1419061103_4_0" index="0" disallow="tram rail_urban rail rail_electric rail_fast ship" speed="8.33" length="14.52" shape="325.83,568.03 317.24,579.73"/>
    </edge>
    <edge id=":1419061103_5" function="internal">
        <lane id=":1419061103_5_0" index="0" disallow="tram rail_urban rail rail_electric rail_fast ship" speed="7.40" length="11.77" shape="325.83,568.03 323.14,570.85 320.60,572.40 318.20,572.66 315.94,571.64"/>
    </edge>
    <edge id=":1419061103_6" function="internal">
        <lane id=":1419061103_6_0" index="0" disallow="tram rail_urban rail rail_electric rail_fast ship" speed="13.89" length="11.24" shape="317.88,569.09 326.87,575.83"/>
    </edge>
    <edge id=":1419061103_7" function="internal">
        <lane id=":1419061103_7_0" index="0" disallow="tram rail_urban rail rail_electric rail_fast ship" speed="7.51" length="3.98" shape="317.88,569.09 319.46,570.99 319.72,572.47"/>
    </edge>
    <edge id=":1419061103_8" function="internal">
        <lane id=":1419061103_8_0" index="0" disallow="tram rail_urban rail rail_electric rail_fast ship" speed="3.65" length="2.34" shape="317.88,569.09 318.35,570.45 318.18,571.33"/>
    </edge>
    <edge id=":1419061103_10" function="internal">
        <lane id=":1419061103_10_0" index="0" disallow="tram rail_urban rail rail_electric rail_fast ship" speed="7.51" length="7.86" shape="319.72,572.47 319.88,573.40 319.14,576.31 317.24,579.73"/>
    </edge>
    <edge id=":1419061103_11" function="internal">
        <lane id=":1419061103_11_0" index="0" disallow="tram rail_urban rail rail_electric rail_fast ship" speed="3.65" length="2.34" shape="318.18,571.33 317.38,571.73 315.94,571.64"/>
    </edge>
    <edge id=":1419061109_0" function="internal">
        <lane id=":1419061109_0_0" index="0" disallow="tram rail_urban rail rail_electric rail_fast ship" speed="8.33" length="14.49" shape="133.02,701.42 128.02,687.83"/>
    </edge>
    <edge id=":1419061109_1" function="internal">
        <lane id=":1419061109_1_0" index="0" disallow="tram rail_urban rail rail_electric rail_fast ship" speed="7.90" length="6.03" shape="133.02,701.42 132.16,697.53 132.56,695.53"/>
    </edge>
    <edge id=":1419061109_2" function="internal">
        <lane id=":1419061109_2_0" index="0" disallow="tram rail_urban rail rail_electric rail_fast ship" speed="3.65" length="2.34" shape="133.02,701.42 133.35,700.02 133.95,699.36"/>
    </edge>
    <edge id=":1419061109_9" function="internal">
        <lane id=":1419061109_9_0" index="0" disallow="tram rail_urban rail rail_electric rail_fast ship" speed="7.90" length="8.39" shape="132.56,695.53 132.79,694.37 134.90,691.93 138.50,690.22"/>
    </edge>
    <edge id=":1419061109_10" function="internal">
        <lane id=":1419061109_10_0" index="0" disallow="tram rail_urban rail rail_electric rail_fast ship" speed="3.65" length="2.34" shape="133.95,699.36 134.84,699.45 136.02,700.30"/>
    </edge>
    <edge id=":1419061109_3" function="internal">
        <lane id=":1419061109_3_0" index="0" disallow="tram rail_urban rail rail_electric rail_fast ship" speed="6.38" length="9.04" shape="139.45,693.27 137.19,694.35 135.87,695.87 135.48,697.86 136.02,700.30"/>
    </edge>
    <edge id=":1419061109_4" function="internal">
        <lane id=":1419061109_4_0" index="0" disallow="tram rail_urban rail rail_electric rail_fast ship" speed="8.16" length="14.30" shape="139.45,693.27 135.54,693.93 132.33,693.24 129.82,691.20 128.02,687.83"/>
    </edge>
    <edge id=":1419061109_5" function="internal">
        <lane id=":1419061109_5_0" index="0" disallow="tram rail_urban rail rail_electric rail_fast ship" speed="3.65" length="2.55" shape="139.45,693.27 138.06,692.86 137.44,692.22 137.48,692.01"/>
    </edge>
    <edge id=":1419061109_11" function="internal">
        <lane id=":1419061109_11_0" index="0" disallow="tram rail_urban rail rail_electric rail_fast ship" speed="3.65" length="2.13" shape="137.48,692.01 137.59,691.34 138.50,690.22"/>
    </edge>
    <edge id=":1419061109_6" function="internal">
        <lane id=":1419061109_6_0" index="0" disallow="tram rail_urban rail rail_electric rail_fast ship" speed="6.69" length="9.30" shape="131.03,686.75 132.20,688.92 133.83,690.22 135.93,690.65 138.50,690.22"/>
    </edge>
    <edge id=":1419061109_7" function="internal">
        <lane id=":1419061109_7_0" index="0" disallow="tram rail_urban rail rail_electric rail_fast ship" speed="8.33" length="14.43" shape="131.03,686.75 136.02,700.30"/>
    </edge>
    <edge id=":1419061109_8" function="internal">
        <lane id=":1419061109_8_0" index="0" disallow="tram rail_urban rail rail_electric rail_fast ship" speed="3.65" length="2.34" shape="131.03,686.75 130.68,688.15 130.07,688.80"/>
    </edge>
    <edge id=":1419061109_12" function="internal">
        <lane id=":1419061109_12_0" index="0" disallow="tram rail_urban rail rail_electric rail_fast ship" speed="3.65" length="2.34" shape="130.07,688.80 129.18,688.69 128.02,687.83"/>
    </edge>
    <edge id=":1711812123_0" function="internal">
        <lane id=":1711812123_0_0" index="0" disallow="tram rail_urban rail rail_electric rail_fast ship" speed="3.65" length="4.67" shape="18.85,1320.60 17.72,1319.71 17.39,1318.88 17.85,1318.11 19.11,1317.42"/>
    </edge>
    <edge id=":1764669250_0" function="internal">
        <lane id=":1764669250_0_0" index="0" disallow="tram rail_urban rail rail_electric rail_fast ship" speed="3.65" length="4.67" shape="959.36,520.28 960.26,519.15 961.09,518.81 961.85,519.28 962.56,520.54"/>
    </edge>
    <edge id=":1779413250_0" function="internal">
        <lane id=":1779413250_0_0" index="0" disallow="tram rail_urban rail rail_electric rail_fast ship" speed="13.89" length="9.52" shape="1676.43,1252.63 1678.51,1254.93 1680.44,1256.17 1682.11,1257.53 1683.41,1260.18"/>
        <lane id=":1779413250_0_1" index="1" disallow="tram rail_urban rail rail_electric rail_fast ship" speed="13.89" length="9.52" shape="1673.76,1254.38 1675.69,1256.45 1677.52,1257.52 1679.12,1258.69 1680.34,1261.09"/>
        <lane id=":1779413250_0_2" index="2" disallow="tram rail_urban rail rail_electric rail_fast ship" speed="13.89" length="9.52" shape="1673.76,1254.38 1675.11,1256.48 1675.93,1257.99 1676.55,1259.60 1677.27,1261.99"/>
    </edge>
    <edge id=":1818648896_0" function="internal">
        <lane id=":1818648896_0_0" index="0" disallow="tram rail_urban rail rail_electric rail_fast ship" speed="8.33" length="7.95" shape="848.42,1253.25 840.51,1252.67"/>
        <lane id=":1818648896_0_1" index="1" disallow="tram rail_urban rail rail_electric rail_fast ship" speed="8.33" length="7.95" shape="848.67,1250.06 840.72,1249.48"/>
    </edge>
    <edge id=":1818648896_2" function="internal">
        <lane id=":1818648896_2_0" index="0" disallow="tram rail_urban rail rail_electric rail_fast ship" speed="8.33" length="8.56" shape="841.15,1243.09 843.66,1242.76 845.29,1241.77 846.92,1240.79 849.42,1240.49"/>
        <lane id=":1818648896_2_1" index="1" disallow="tram rail_urban rail rail_electric rail_fast ship" speed="8.33" length="8.56" shape="840.94,1246.29 843.44,1245.95 845.06,1244.96 846.68,1243.98 849.17,1243.68"/>
        <lane id=":1818648896_2_2" index="2" disallow="tram rail_urban rail rail_electric rail_fast ship" speed="8.33" length="8.56" shape="840.94,1246.29 848.92,1246.87"/>
    </edge>
    <edge id=":1842101038_0" function="internal">
        <lane id=":1842101038_0_0" index="0" disallow="tram rail_urban rail rail_electric rail_fast ship" speed="3.65" length="4.67" shape="51.75,480.17 52.06,478.77 52.67,478.11 53.56,478.19 54.73,479.03"/>
    </edge>
    <edge id=":1870173778_0" function="internal">
        <lane id=":1870173778_0_0" index="0" disallow="tram rail_urban rail rail_electric rail_fast ship" speed="13.89" length="0.31" shape="7.26,345.06 7.00,344.88"/>
    </edge>
    <edge id=":1870173778_1" function="internal">
        <lane id=":1870173778_1_0" index="0" disallow="tram rail_urban rail rail_electric rail_fast ship" speed="13.89" length="0.25" shape="8.83,342.25 9.04,342.40"/>
    </edge>
    <edge id=":1874549825_0" function="internal">
        <lane id=":1874549825_0_0" index="0" disallow="tram rail_urban rail rail_electric rail_fast ship" speed="13.89" length="0.10" shape="381.54,595.42 381.54,595.42"/>
    </edge>
    <edge id=":2098466364_0" function="internal">
        <lane id=":2098466364_0_0" index="0" disallow="tram rail_urban rail rail_electric rail_fast ship" speed="13.89" length="0.29" shape="912.43,1166.61 912.40,1166.90"/>
    </edge>
    <edge id=":2098466364_1" function="internal">
        <lane id=":2098466364_1_0" index="0" disallow="tram rail_urban rail rail_electric rail_fast ship" speed="13.89" length="0.31" shape="909.21,1166.64 909.24,1166.33"/>
    </edge>
    <edge id=":2247733130_0" function="internal">
        <lane id=":2247733130_0_0" index="0" disallow="tram rail_urban rail rail_electric rail_fast ship" speed="6.58" length="9.16" shape="1393.04,1092.72 1390.53,1092.91 1388.68,1093.84 1387.47,1095.52 1386.91,1097.96"/>
    </edge>
    <edge id=":2247733130_1" function="internal">
        <lane id=":2247733130_1_0" index="0" disallow="tram rail_urban rail rail_electric rail_fast ship" speed="8.33" length="14.48" shape="1393.04,1092.72 1378.60,1091.66"/>
    </edge>
    <edge id=":2247733130_2" function="internal">
        <lane id=":2247733130_2_0" index="0" disallow="tram rail_urban rail rail_electric rail_fast ship" speed="7.97" length="14.26" shape="1393.04,1092.72 1389.21,1091.91 1386.58,1090.06 1385.15,1087.19 1384.92,1083.28"/>
    </edge>
    <edge id=":2247733130_3" function="internal">
        <lane id=":2247733130_3_0" index="0" disallow="tram rail_urban rail rail_electric rail_fast ship" speed="3.65" length="4.67" shape="1393.04,1092.72 1391.90,1091.84 1391.55,1091.02 1392.00,1090.25 1393.25,1089.53"/>
    </edge>
    <edge id=":2247733130_4" function="internal">
        <lane id=":2247733130_4_0" index="0" disallow="tram rail_urban rail rail_electric rail_fast ship" speed="6.47" length="9.03" shape="1388.11,1083.55 1388.26,1086.02 1389.16,1087.85 1390.83,1089.01 1393.25,1089.53"/>
    </edge>
    <edge id=":2247733130_5" function="internal">
        <lane id=":2247733130_5_0" index="0" disallow="tram rail_urban rail rail_electric rail_fast ship" speed="8.33" length="14.46" shape="1388.11,1083.55 1386.91,1097.96"/>
    </edge>
    <edge id=":2247733130_6" function="internal">
        <lane id=":2247733130_6_0" index="0" disallow="tram rail_urban rail rail_electric rail_fast ship" speed="8.03" length="14.25" shape="1388.11,1083.55 1387.24,1087.36 1385.36,1089.98 1382.48,1091.42 1378.60,1091.66"/>
    </edge>
    <edge id=":2247733130_7" function="internal">
        <lane id=":2247733130_7_0" index="0" disallow="tram rail_urban rail rail_electric rail_fast ship" speed="3.65" length="4.67" shape="1388.11,1083.55 1387.21,1084.67 1386.38,1085.01 1385.62,1084.54 1384.92,1083.28"/>
    </edge>
    <edge id=":2247733130_8" function="internal">
        <lane id=":2247733130_8_0" index="0" disallow="tram rail_urban rail rail_electric rail_fast ship" speed="6.54" length="9.10" shape="1378.85,1088.47 1381.33,1088.32 1383.17,1087.40 1384.37,1085.72 1384.92,1083.28"/>
    </edge>
    <edge id=":2247733130_9" function="internal">
        <lane id=":2247733130_9_0" index="0" disallow="tram rail_urban rail rail_electric rail_fast ship" speed="8.33" length="14.44" shape="1378.85,1088.47 1393.25,1089.53"/>
    </edge>
    <edge id=":2247733130_10" function="internal">
        <lane id=":2247733130_10_0" index="0" disallow="tram rail_urban rail rail_electric rail_fast ship" speed="8.00" length="14.20" shape="1378.85,1088.47 1382.65,1089.33 1385.26,1091.19 1386.68,1094.07 1386.91,1097.96"/>
    </edge>
    <edge id=":2247733130_11" function="internal">
        <lane id=":2247733130_11_0" index="0" disallow="tram rail_urban rail rail_electric rail_fast ship" speed="3.65" length="4.67" shape="1378.85,1088.47 1379.98,1089.37 1380.32,1090.19 1379.86,1090.96 1378.60,1091.66"/>
    </edge>
    <edge id=":2247733130_12" function="internal">
        <lane id=":2247733130_12_0" index="0" disallow="tram rail_urban rail rail_electric rail_fast ship" speed="6.50" length="9.03" shape="1383.72,1097.69 1383.58,1095.22 1382.67,1093.39 1381.01,1092.21 1378.60,1091.66"/>
    </edge>
    <edge id=":2247733130_13" function="internal">
        <lane id=":2247733130_13_0" index="0" disallow="tram rail_urban rail rail_electric rail_fast ship" speed="8.33" length="14.46" shape="1383.72,1097.69 1384.92,1083.28"/>
    </edge>
    <edge id=":2247733130_14" function="internal">
        <lane id=":2247733130_14_0" index="0" disallow="tram rail_urban rail rail_electric rail_fast ship" speed="8.06" length="14.26" shape="1383.72,1097.69 1384.59,1093.90 1386.47,1091.27 1389.36,1089.82 1393.25,1089.53"/>
    </edge>
    <edge id=":2247733130_15" function="internal">
        <lane id=":2247733130_15_0" index="0" disallow="tram rail_urban rail rail_electric rail_fast ship" speed="3.65" length="4.67" shape="1383.72,1097.69 1384.62,1096.56 1385.45,1096.23 1386.21,1096.69 1386.91,1097.96"/>
    </edge>
    <edge id=":2491876096_0" function="internal">
        <lane id=":2491876096_0_0" index="0" disallow="tram rail_urban rail rail_electric rail_fast ship" speed="3.65" length="4.67" shape="157.03,1194.07 155.90,1193.17 155.58,1192.34 156.05,1191.58 157.31,1190.89"/>
    </edge>
    <edge id=":25661967_0" function="internal">
        <lane id=":25661967_0_0" index="0" disallow="tram rail_urban rail rail_electric rail_fast ship" speed="3.65" length="4.67" shape="681.06,1532.32 680.17,1533.46 679.34,1533.80 678.57,1533.34 677.86,1532.08"/>
    </edge>
    <edge id=":25661984_0" function="internal">
        <lane id=":25661984_0_0" index="0" disallow="tram rail_urban rail rail_electric rail_fast ship" speed="6.40" length="9.04" shape="309.14,1345.25 306.65,1345.31 304.81,1346.17 303.64,1347.82 303.12,1350.26"/>
    </edge>
    <edge id=":25661984_1" function="internal">
        <lane id=":25661984_1_0" index="0" disallow="tram rail_urban rail rail_electric rail_fast ship" speed="8.33" length="14.46" shape="309.14,1345.25 294.76,1343.80"/>
    </edge>
    <edge id=":25661984_2" function="internal">
        <lane id=":25661984_2_0" index="0" disallow="tram rail_urban rail rail_electric rail_fast ship" speed="3.65" length="4.67" shape="309.14,1345.25 308.04,1344.31 307.74,1343.47 308.23,1342.72 309.51,1342.07"/>
    </edge>
    <edge id=":25661984_3" function="internal">
        <lane id=":25661984_3_0" index="0" disallow="tram rail_urban rail rail_electric rail_fast ship" speed="8.33" length="14.56" shape="295.03,1340.61 309.51,1342.07"/>
    </edge>
    <edge id=":25661984_4" function="internal">
        <lane id=":25661984_4_0" index="0" disallow="tram rail_urban rail rail_electric rail_fast ship" speed="8.09" length="14.31" shape="295.03,1340.61 298.79,1341.48 301.39,1343.38 302.84,1346.31 303.12,1350.26"/>
    </edge>
    <edge id=":25661984_5" function="internal">
        <lane id=":25661984_5_0" index="0" disallow="tram rail_urban rail rail_electric rail_fast ship" speed="3.65" length="4.67" shape="295.03,1340.61 296.16,1341.51 296.49,1342.34 296.02,1343.10 294.76,1343.80"/>
    </edge>
    <edge id=":25661984_6" function="internal">
        <lane id=":25661984_6_0" index="0" disallow="tram rail_urban rail rail_electric rail_fast ship" speed="6.61" length="9.21" shape="299.93,1350.05 299.75,1347.49 298.83,1345.59 297.16,1344.36 294.76,1343.80"/>
    </edge>
    <edge id=":25661984_7" function="internal">
        <lane id=":25661984_7_0" index="0" disallow="tram rail_urban rail rail_electric rail_fast ship" speed="7.91" length="14.39" shape="299.93,1350.05 300.75,1346.16 302.62,1343.54 305.54,1342.17 309.51,1342.07"/>
    </edge>
    <edge id=":25661984_8" function="internal">
        <lane id=":25661984_8_0" index="0" disallow="tram rail_urban rail rail_electric rail_fast ship" speed="3.65" length="4.67" shape="299.93,1350.05 300.81,1348.90 301.63,1348.56 302.41,1349.01 303.12,1350.26"/>
    </edge>
    <edge id=":25662041_0" function="internal">
        <lane id=":25662041_0_0" index="0" disallow="tram rail_urban rail rail_electric rail_fast ship" speed="6.45" length="9.03" shape="700.53,1336.23 698.05,1336.37 696.23,1337.26 695.06,1338.93 694.56,1341.36"/>
    </edge>
    <edge id=":25662041_1" function="internal">
        <lane id=":25662041_1_0" index="0" disallow="tram rail_urban rail rail_electric rail_fast ship" speed="8.05" length="14.24" shape="700.53,1336.23 696.65,1335.35 693.98,1333.49 692.51,1330.65 692.24,1326.85"/>
    </edge>
    <edge id=":25662041_2" function="internal">
        <lane id=":25662041_2_0" index="0" disallow="tram rail_urban rail rail_electric rail_fast ship" speed="3.65" length="4.67" shape="700.53,1336.23 699.41,1335.33 699.08,1334.50 699.55,1333.74 700.81,1333.05"/>
    </edge>
    <edge id=":25662041_3" function="internal">
        <lane id=":25662041_3_0" index="0" disallow="tram rail_urban rail rail_electric rail_fast ship" speed="6.59" length="9.19" shape="695.44,1327.01 695.61,1329.45 696.57,1331.28 698.30,1332.47 700.81,1333.05"/>
    </edge>
    <edge id=":25662041_4" function="internal">
        <lane id=":25662041_4_0" index="0" disallow="tram rail_urban rail rail_electric rail_fast ship" speed="13.89" length="14.38" shape="695.44,1327.01 694.56,1341.36"/>
    </edge>
    <edge id=":25662041_5" function="internal">
        <lane id=":25662041_5_0" index="0" disallow="tram rail_urban rail rail_electric rail_fast ship" speed="3.65" length="2.34" shape="695.44,1327.01 694.58,1328.17 693.76,1328.53"/>
    </edge>
    <edge id=":25662041_9" function="internal">
        <lane id=":25662041_9_0" index="0" disallow="tram rail_urban rail rail_electric rail_fast ship" speed="3.65" length="2.34" shape="693.76,1328.53 692.98,1328.09 692.24,1326.85"/>
    </edge>
    <edge id=":25662041_6" function="internal">
        <lane id=":25662041_6_0" index="0" disallow="tram rail_urban rail rail_electric rail_fast ship" speed="13.89" length="14.35" shape="691.37,1341.17 692.24,1326.85"/>
    </edge>
    <edge id=":25662041_7" function="internal">
        <lane id=":25662041_7_0" index="0" disallow="tram rail_urban rail rail_electric rail_fast ship" speed="7.95" length="5.93" shape="691.37,1341.17 692.16,1337.32 693.31,1335.68"/>
    </edge>
    <edge id=":25662041_8" function="internal">
        <lane id=":25662041_8_0" index="0" disallow="tram rail_urban rail rail_electric rail_fast ship" speed="3.65" length="2.34" shape="691.37,1341.17 692.24,1340.02 693.06,1339.67"/>
    </edge>
    <edge id=":25662041_10" function="internal">
        <lane id=":25662041_10_0" index="0" disallow="tram rail_urban rail rail_electric rail_fast ship" speed="7.95" length="8.37" shape="693.31,1335.68 694.00,1334.68 696.89,1333.25 700.81,1333.05"/>
    </edge>
    <edge id=":25662041_11" function="internal">
        <lane id=":25662041_11_0" index="0" disallow="tram rail_urban rail rail_electric rail_fast ship" speed="3.65" length="2.34" shape="693.06,1339.67 693.84,1340.12 694.56,1341.36"/>
    </edge>
    <edge id=":25663142_0" function="internal">
        <lane id=":25663142_0_0" index="0" disallow="tram rail_urban rail rail_electric rail_fast ship" speed="6.74" length="9.58" shape="1034.97,1359.44 1032.47,1359.71 1030.62,1360.78 1029.43,1362.64 1028.89,1365.30"/>
    </edge>
    <edge id=":25663142_1" function="internal">
        <lane id=":25663142_1_0" index="0" disallow="tram rail_urban rail rail_electric rail_fast ship" speed="8.33" length="14.71" shape="1034.97,1359.44 1031.27,1359.33 1027.62,1359.34 1023.97,1359.45 1020.27,1359.68"/>
    </edge>
    <edge id=":25663142_2" function="internal">
        <lane id=":25663142_2_0" index="0" disallow="tram rail_urban rail rail_electric rail_fast ship" speed="7.99" length="14.22" shape="1034.97,1359.44 1031.14,1358.71 1028.47,1356.93 1026.96,1354.10 1026.62,1350.21"/>
    </edge>
    <edge id=":25663142_3" function="internal">
        <lane id=":25663142_3_0" index="0" disallow="tram rail_urban rail rail_electric rail_fast ship" speed="3.65" length="4.67" shape="1034.97,1359.44 1033.81,1358.59 1033.45,1357.77 1033.88,1356.99 1035.12,1356.25"/>
    </edge>