<?xml version="1.0" encoding="UTF-8"?>

<!-- generated on 2021-11-02 12:16:56 by Eclipse SUMO netconvert Version 1.9.2
<configuration xmlns:xsi="http://www.w3.org/2001/XMLSchema-instance" xsi:noNamespaceSchemaLocation="http://sumo.dlr.de/xsd/netconvertConfiguration.xsd">

    <input>
        <osm-files value="C:\Users\Mates\Desktop\SemProjekt\SUMO_python\maps\osm\filtered\chodov_roundabout_filtered.osm"/>
    </input>

    <output>
        <output-file value="C:\Users\Mates\Desktop\SemProjekt\SUMO_python\maps\sumo\chodov_roundabout.net.xml"/>
    </output>

    <projection>
        <proj.utm value="true"/>
    </projection>

    <processing>
        <geometry.remove value="true"/>
        <roundabouts.guess value="true"/>
    </processing>

    <ramp_guessing>
        <ramps.guess value="true"/>
    </ramp_guessing>

    <edge_removal>
        <keep-edges.components value="1"/>
        <remove-edges.isolated value="true"/>
    </edge_removal>

    <junctions>
        <junctions.join value="true"/>
    </junctions>

    <report>
        <aggregate-warnings value="5"/>
    </report>

</configuration>
-->

<net version="1.9" junctionCornerDetail="5" limitTurnSpeed="5.50" xmlns:xsi="http://www.w3.org/2001/XMLSchema-instance" xsi:noNamespaceSchemaLocation="http://sumo.dlr.de/xsd/net_file.xsd">

    <location netOffset="-464172.98,-5542009.12" convBoundary="0.00,0.00,1508.67,1026.25" origBoundary="14.498404,50.026590,14.520810,50.038591" projParameter="+proj=utm +zone=33 +ellps=WGS84 +datum=WGS84 +units=m +no_defs"/>

    <type id="highway.bridleway" priority="1" numLanes="1" speed="2.78" allow="pedestrian" oneway="1" width="2.00"/>
    <type id="highway.bus_guideway" priority="1" numLanes="1" speed="27.78" allow="bus" oneway="1"/>
    <type id="highway.cycleway" priority="1" numLanes="1" speed="8.33" allow="bicycle" oneway="0" width="1.00"/>
    <type id="highway.footway" priority="1" numLanes="1" speed="2.78" allow="pedestrian" oneway="1" width="2.00"/>
    <type id="highway.ford" priority="1" numLanes="1" speed="2.78" allow="army" oneway="0"/>
    <type id="highway.living_street" priority="2" numLanes="1" speed="2.78" disallow="tram rail_urban rail rail_electric rail_fast ship" oneway="0"/>
    <type id="highway.motorway" priority="14" numLanes="2" speed="39.44" allow="private emergency authority army vip passenger hov taxi bus coach delivery truck trailer motorcycle evehicle custom1 custom2" oneway="1"/>
    <type id="highway.motorway_link" priority="9" numLanes="1" speed="22.22" allow="private emergency authority army vip passenger hov taxi bus coach delivery truck trailer motorcycle evehicle custom1 custom2" oneway="1"/>
    <type id="highway.path" priority="1" numLanes="1" speed="2.78" allow="pedestrian bicycle" oneway="0" width="2.00"/>
    <type id="highway.pedestrian" priority="1" numLanes="1" speed="2.78" allow="pedestrian" oneway="1" width="2.00"/>
    <type id="highway.primary" priority="12" numLanes="2" speed="27.78" disallow="tram rail_urban rail rail_electric rail_fast ship" oneway="0"/>
    <type id="highway.primary_link" priority="7" numLanes="1" speed="22.22" disallow="tram rail_urban rail rail_electric rail_fast ship" oneway="0"/>
    <type id="highway.raceway" priority="15" numLanes="2" speed="83.33" allow="vip" oneway="0"/>
    <type id="highway.residential" priority="3" numLanes="1" speed="13.89" disallow="tram rail_urban rail rail_electric rail_fast ship" oneway="0"/>
    <type id="highway.secondary" priority="11" numLanes="1" speed="27.78" disallow="tram rail_urban rail rail_electric rail_fast ship" oneway="0"/>
    <type id="highway.secondary_link" priority="6" numLanes="1" speed="22.22" disallow="tram rail_urban rail rail_electric rail_fast ship" oneway="0"/>
    <type id="highway.service" priority="1" numLanes="1" speed="5.56" allow="pedestrian delivery bicycle" oneway="0"/>
    <type id="highway.stairs" priority="1" numLanes="1" speed="1.39" allow="pedestrian" oneway="1" width="2.00"/>
    <type id="highway.step" priority="1" numLanes="1" speed="1.39" allow="pedestrian" oneway="1" width="2.00"/>
    <type id="highway.steps" priority="1" numLanes="1" speed="1.39" allow="pedestrian" oneway="1" width="2.00"/>
    <type id="highway.tertiary" priority="10" numLanes="1" speed="22.22" disallow="tram rail_urban rail rail_electric rail_fast ship" oneway="0"/>
    <type id="highway.tertiary_link" priority="5" numLanes="1" speed="22.22" disallow="tram rail_urban rail rail_electric rail_fast ship" oneway="0"/>
    <type id="highway.track" priority="1" numLanes="1" speed="5.56" allow="pedestrian motorcycle moped bicycle" oneway="0"/>
    <type id="highway.trunk" priority="13" numLanes="2" speed="27.78" disallow="pedestrian bicycle tram rail_urban rail rail_electric rail_fast ship" oneway="0"/>
    <type id="highway.trunk_link" priority="8" numLanes="1" speed="22.22" disallow="pedestrian bicycle tram rail_urban rail rail_electric rail_fast ship" oneway="0"/>
    <type id="highway.unclassified" priority="4" numLanes="1" speed="13.89" disallow="tram rail_urban rail rail_electric rail_fast ship" oneway="0"/>
    <type id="highway.unsurfaced" priority="1" numLanes="1" speed="8.33" disallow="tram rail_urban rail rail_electric rail_fast ship" oneway="0"/>
    <type id="railway.highspeed" priority="21" numLanes="1" speed="69.44" allow="rail_fast" oneway="1"/>
    <type id="railway.light_rail" priority="19" numLanes="1" speed="27.78" allow="rail_urban" oneway="1"/>
    <type id="railway.preserved" priority="16" numLanes="1" speed="27.78" allow="rail" oneway="1"/>
    <type id="railway.rail" priority="20" numLanes="1" speed="44.44" allow="rail" oneway="1"/>
    <type id="railway.subway" priority="18" numLanes="1" speed="27.78" allow="rail_urban" oneway="1"/>
    <type id="railway.tram" priority="17" numLanes="1" speed="13.89" allow="tram" oneway="1"/>

    <edge id=":1140877124_0" function="internal">
        <lane id=":1140877124_0_0" index="0" disallow="tram rail_urban rail rail_electric rail_fast ship" speed="3.65" length="4.67" shape="582.50,762.16 583.59,763.10 583.89,763.95 583.39,764.69 582.10,765.34"/>
    </edge>
    <edge id=":1140887307_0" function="internal">
        <lane id=":1140887307_0_0" index="0" disallow="tram rail_urban rail rail_electric rail_fast ship" speed="3.65" length="4.67" shape="750.83,471.95 751.83,472.99 752.04,473.86 751.48,474.55 750.13,475.07"/>
    </edge>
    <edge id=":1293084424_0" function="internal">
        <lane id=":1293084424_0_0" index="0" disallow="tram rail_urban rail rail_electric rail_fast ship" speed="13.89" length="0.28" shape="542.41,289.49 542.35,289.22"/>
    </edge>
    <edge id=":1293084424_1" function="internal">
        <lane id=":1293084424_1_0" index="0" disallow="tram rail_urban rail rail_electric rail_fast ship" speed="13.89" length="0.35" shape="545.42,288.36 545.51,288.70"/>
    </edge>
    <edge id=":1344798922_0" function="internal">
        <lane id=":1344798922_0_0" index="0" disallow="tram rail_urban rail rail_electric rail_fast ship" speed="3.65" length="4.67" shape="542.92,422.18 544.01,421.24 544.89,421.07 545.55,421.67 546.00,423.05"/>
    </edge>
    <edge id=":1536409914_0" function="internal">
        <lane id=":1536409914_0_0" index="0" disallow="tram rail_urban rail rail_electric rail_fast ship" speed="13.89" length="8.21" shape="339.72,281.78 337.62,282.96 336.36,284.10 335.10,285.23 333.00,286.40"/>
    </edge>
    <edge id=":1536409917_0" function="internal">
        <lane id=":1536409917_0_0" index="0" disallow="tram rail_urban rail rail_electric rail_fast ship" speed="13.89" length="7.93" shape="276.07,310.79 274.03,311.95 272.79,313.06 271.53,314.11 269.43,315.12"/>
        <lane id=":1536409917_0_1" index="1" disallow="tram rail_urban rail rail_electric rail_fast ship" speed="13.89" length="7.93" shape="276.07,310.79 273.88,311.47 272.26,311.55 270.62,311.57 268.37,312.10"/>
    </edge>
    <edge id=":1837069961_0" function="internal">
        <lane id=":1837069961_0_0" index="0" disallow="tram rail_urban rail rail_electric rail_fast ship" speed="3.65" length="1.16" shape="933.23,383.59 932.41,384.43"/>
    </edge>
    <edge id=":1837069961_2" function="internal">
        <lane id=":1837069961_2_0" index="0" disallow="tram rail_urban rail rail_electric rail_fast ship" speed="3.65" length="3.51" shape="932.41,384.43 932.22,384.63 931.36,384.87 930.65,384.33 930.08,383.00"/>
    </edge>
    <edge id=":1837069961_1" function="internal">
        <lane id=":1837069961_1_0" index="0" disallow="tram rail_urban rail rail_electric rail_fast ship" speed="13.89" length="3.52" shape="931.13,386.23 931.04,385.26 930.60,384.62 930.15,383.98 930.08,383.00"/>
    </edge>
    <edge id=":1837070006_0" function="internal">
        <lane id=":1837070006_0_0" index="0" disallow="tram rail_urban rail rail_electric rail_fast ship" speed="3.65" length="4.67" shape="1499.32,503.43 1498.34,504.50 1497.49,504.77 1496.76,504.25 1496.15,502.94"/>
    </edge>
    <edge id=":1837610457_0" function="internal">
        <lane id=":1837610457_0_0" index="0" disallow="tram rail_urban rail rail_electric rail_fast ship" speed="13.89" length="14.41" shape="481.21,510.10 467.26,506.44"/>
    </edge>
    <edge id=":1837610457_1" function="internal">
        <lane id=":1837610457_1_0" index="0" disallow="tram rail_urban rail rail_electric rail_fast ship" speed="7.94" length="5.96" shape="481.21,510.10 477.57,508.57 476.17,507.12"/>
    </edge>
    <edge id=":1837610457_2" function="internal">
        <lane id=":1837610457_2_0" index="0" disallow="tram rail_urban rail rail_electric rail_fast ship" speed="3.65" length="2.34" shape="481.21,510.10 480.25,509.02 480.06,508.15"/>
    </edge>
    <edge id=":1837610457_9" function="internal">
        <lane id=":1837610457_9_0" index="0" disallow="tram rail_urban rail rail_electric rail_fast ship" speed="7.94" length="8.35" shape="476.17,507.12 475.33,506.26 474.50,503.16 475.06,499.27"/>
    </edge>
    <edge id=":1837610457_10" function="internal">
        <lane id=":1837610457_10_0" index="0" disallow="tram rail_urban rail rail_electric rail_fast ship" speed="3.65" length="2.34" shape="480.06,508.15 480.65,507.47 482.01,507.00"/>
    </edge>
    <edge id=":1837610457_3" function="internal">
        <lane id=":1837610457_3_0" index="0" disallow="tram rail_urban rail rail_electric rail_fast ship" speed="6.44" length="9.04" shape="478.14,500.16 477.78,502.62 478.30,504.58 479.72,506.04 482.01,507.00"/>
    </edge>
    <edge id=":1837610457_4" function="internal">
        <lane id=":1837610457_4_0" index="0" disallow="tram rail_urban rail rail_electric rail_fast ship" speed="8.10" length="14.23" shape="478.14,500.16 476.51,503.74 474.16,505.98 471.08,506.88 467.26,506.44"/>
    </edge>
    <edge id=":1837610457_5" function="internal">
        <lane id=":1837610457_5_0" index="0" disallow="tram rail_urban rail rail_electric rail_fast ship" speed="3.65" length="4.67" shape="478.14,500.16 477.03,501.09 476.15,501.25 475.50,500.64 475.06,499.27"/>
    </edge>
    <edge id=":1837610457_6" function="internal">
        <lane id=":1837610457_6_0" index="0" disallow="tram rail_urban rail rail_electric rail_fast ship" speed="6.62" length="9.16" shape="468.08,503.35 470.52,503.62 472.50,503.04 474.02,501.58 475.06,499.27"/>
    </edge>
    <edge id=":1837610457_7" function="internal">
        <lane id=":1837610457_7_0" index="0" disallow="tram rail_urban rail rail_electric rail_fast ship" speed="13.89" length="14.41" shape="468.08,503.35 482.01,507.00"/>
    </edge>
    <edge id=":1837610457_8" function="internal">
        <lane id=":1837610457_8_0" index="0" disallow="tram rail_urban rail rail_electric rail_fast ship" speed="3.65" length="2.34" shape="468.08,503.35 469.03,504.43 469.22,505.30"/>
    </edge>
    <edge id=":1837610457_11" function="internal">
        <lane id=":1837610457_11_0" index="0" disallow="tram rail_urban rail rail_electric rail_fast ship" speed="3.65" length="2.34" shape="469.22,505.30 468.63,505.98 467.26,506.44"/>
    </edge>
    <edge id=":1898528604_0" function="internal">
        <lane id=":1898528604_0_0" index="0" disallow="tram rail_urban rail rail_electric rail_fast ship" speed="3.65" length="4.67" shape="1079.21,696.17 1080.13,697.28 1080.28,698.17 1079.67,698.82 1078.29,699.24"/>
    </edge>
    <edge id=":1898529267_0" function="internal">
        <lane id=":1898529267_0_0" index="0" disallow="tram rail_urban rail rail_electric rail_fast ship" speed="3.65" length="4.67" shape="437.96,743.38 439.06,744.32 439.36,745.16 438.87,745.91 437.58,746.56"/>
    </edge>
    <edge id=":246686629_0" function="internal">
        <lane id=":246686629_0_0" index="0" disallow="tram rail_urban rail rail_electric rail_fast ship" speed="13.89" length="14.71" shape="1034.13,610.70 1020.16,606.10"/>
    </edge>
    <edge id=":246686629_1" function="internal">
        <lane id=":246686629_1_0" index="0" disallow="tram rail_urban rail rail_electric rail_fast ship" speed="8.58" length="5.95" shape="1034.13,610.70 1030.77,609.08 1029.29,607.43"/>
    </edge>
    <edge id=":246686629_2" function="internal">
        <lane id=":246686629_2_0" index="0" disallow="tram rail_urban rail rail_electric rail_fast ship" speed="3.65" length="2.34" shape="1034.13,610.70 1033.21,609.59 1033.06,608.71"/>
    </edge>
    <edge id=":246686629_9" function="internal">
        <lane id=":246686629_9_0" index="0" disallow="tram rail_urban rail rail_electric rail_fast ship" speed="8.58" length="8.72" shape="1029.29,607.43 1028.57,606.61 1027.53,603.30 1027.66,599.15"/>
    </edge>
    <edge id=":246686629_10" function="internal">
        <lane id=":246686629_10_0" index="0" disallow="tram rail_urban rail rail_electric rail_fast ship" speed="3.65" length="2.34" shape="1033.06,608.71 1033.68,608.06 1035.06,607.64"/>
    </edge>
    <edge id=":246686629_3" function="internal">
        <lane id=":246686629_3_0" index="0" disallow="tram rail_urban rail rail_electric rail_fast ship" speed="7.21" length="10.08" shape="1030.83,599.57 1030.72,602.51 1031.39,604.83 1032.84,606.54 1035.06,607.64"/>
    </edge>
    <edge id=":246686629_4" function="internal">
        <lane id=":246686629_4_0" index="0" disallow="tram rail_urban rail rail_electric rail_fast ship" speed="7.71" length="14.96" shape="1030.83,599.57 1029.60,603.64 1027.41,606.08 1024.26,606.90 1020.16,606.10"/>
    </edge>
    <edge id=":246686629_5" function="internal">
        <lane id=":246686629_5_0" index="0" disallow="tram rail_urban rail rail_electric rail_fast ship" speed="3.65" length="4.67" shape="1030.83,599.57 1029.88,600.66 1029.03,600.95 1028.29,600.44 1027.66,599.15"/>
    </edge>
    <edge id=":246686629_6" function="internal">
        <lane id=":246686629_6_0" index="0" disallow="tram rail_urban rail rail_electric rail_fast ship" speed="6.13" length="9.02" shape="1021.22,603.08 1023.70,603.56 1025.60,603.07 1026.92,601.59 1027.66,599.15"/>
    </edge>
    <edge id=":246686629_7" function="internal">
        <lane id=":246686629_7_0" index="0" disallow="tram rail_urban rail rail_electric rail_fast ship" speed="13.89" length="14.58" shape="1021.22,603.08 1035.06,607.64"/>
    </edge>
    <edge id=":246686629_8" function="internal">
        <lane id=":246686629_8_0" index="0" disallow="tram rail_urban rail rail_electric rail_fast ship" speed="3.65" length="2.34" shape="1021.22,603.08 1022.09,604.23 1022.20,605.12"/>
    </edge>
    <edge id=":246686629_11" function="internal">
        <lane id=":246686629_11_0" index="0" disallow="tram rail_urban rail rail_electric rail_fast ship" speed="3.65" length="2.34" shape="1022.20,605.12 1021.55,605.74 1020.16,606.10"/>
    </edge>
    <edge id=":246686630_0" function="internal">
        <lane id=":246686630_0_0" index="0" disallow="tram rail_urban rail rail_electric rail_fast ship" speed="6.47" length="9.03" shape="1058.21,459.36 1055.73,459.29 1053.83,460.03 1052.53,461.59 1051.80,463.97"/>
    </edge>
    <edge id=":246686630_1" function="internal">
        <lane id=":246686630_1_0" index="0" disallow="tram rail_urban rail rail_electric rail_fast ship" speed="13.89" length="14.40" shape="1058.21,459.36 1044.02,456.91"/>
    </edge>
    <edge id=":246686630_2" function="internal">
        <lane id=":246686630_2_0" index="0" disallow="tram rail_urban rail rail_electric rail_fast ship" speed="3.65" length="2.34" shape="1058.21,459.36 1057.16,458.37 1056.91,457.51"/>
    </edge>
    <edge id=":246686630_9" function="internal">
        <lane id=":246686630_9_0" index="0" disallow="tram rail_urban rail rail_electric rail_fast ship" speed="3.65" length="2.34" shape="1056.91,457.51 1057.44,456.80 1058.76,456.21"/>
    </edge>
    <edge id=":246686630_3" function="internal">
        <lane id=":246686630_3_0" index="0" disallow="tram rail_urban rail rail_electric rail_fast ship" speed="13.89" length="14.41" shape="1044.56,453.76 1058.76,456.21"/>
    </edge>
    <edge id=":246686630_4" function="internal">
        <lane id=":246686630_4_0" index="0" disallow="tram rail_urban rail rail_electric rail_fast ship" speed="8.06" length="5.90" shape="1044.56,453.76 1048.24,454.95 1049.78,456.28"/>
    </edge>
    <edge id=":246686630_5" function="internal">
        <lane id=":246686630_5_0" index="0" disallow="tram rail_urban rail rail_electric rail_fast ship" speed="3.65" length="2.34" shape="1044.56,453.76 1045.61,454.75 1045.87,455.60"/>
    </edge>
    <edge id=":246686630_10" function="internal">
        <lane id=":246686630_10_0" index="0" disallow="tram rail_urban rail rail_electric rail_fast ship" speed="8.06" length="8.32" shape="1049.78,456.28 1050.67,457.05 1051.86,460.05 1051.80,463.97"/>
    </edge>
    <edge id=":246686630_11" function="internal">
        <lane id=":246686630_11_0" index="0" disallow="tram rail_urban rail rail_electric rail_fast ship" speed="3.65" length="2.34" shape="1045.87,455.60 1045.34,456.32 1044.02,456.91"/>
    </edge>
    <edge id=":246686630_6" function="internal">
        <lane id=":246686630_6_0" index="0" disallow="tram rail_urban rail rail_electric rail_fast ship" speed="6.58" length="9.12" shape="1048.64,463.48 1048.68,460.96 1047.92,459.02 1046.37,457.67 1044.02,456.91"/>
    </edge>
    <edge id=":246686630_7" function="internal">
        <lane id=":246686630_7_0" index="0" disallow="tram rail_urban rail rail_electric rail_fast ship" speed="7.97" length="14.26" shape="1048.64,463.48 1049.78,459.73 1051.85,457.27 1054.84,456.10 1058.76,456.21"/>
    </edge>
    <edge id=":246686630_8" function="internal">
        <lane id=":246686630_8_0" index="0" disallow="tram rail_urban rail rail_electric rail_fast ship" speed="3.65" length="4.67" shape="1048.64,463.48 1049.61,462.41 1050.47,462.14 1051.20,462.66 1051.80,463.97"/>
    </edge>
    <edge id=":246686631_0" function="internal">
        <lane id=":246686631_0_0" index="0" disallow="tram rail_urban rail rail_electric rail_fast ship" speed="3.65" length="4.67" shape="1114.72,465.93 1115.77,466.93 1116.03,467.78 1115.49,468.50 1114.17,469.09"/>
    </edge>
    <edge id=":246686632_0" function="internal">
        <lane id=":246686632_0_0" index="0" disallow="tram rail_urban rail rail_electric rail_fast ship" speed="3.65" length="4.67" shape="1012.59,451.49 1011.55,450.50 1011.29,449.64 1011.82,448.92 1013.14,448.34"/>
    </edge>
    <edge id=":246686983_0" function="internal">
        <lane id=":246686983_0_0" index="0" disallow="tram rail_urban rail rail_electric rail_fast ship" speed="13.89" length="14.08" shape="744.44,535.78 730.37,535.23"/>
    </edge>
    <edge id=":246686983_1" function="internal">
        <lane id=":246686983_1_0" index="0" disallow="tram rail_urban rail rail_electric rail_fast ship" speed="7.46" length="6.56" shape="744.44,535.78 739.77,534.91 738.25,533.94"/>
    </edge>
    <edge id=":246686983_2" function="internal">
        <lane id=":246686983_2_0" index="0" disallow="tram rail_urban rail rail_electric rail_fast ship" speed="3.65" length="2.34" shape="744.44,535.78 743.30,534.90 742.95,534.08"/>
    </edge>
    <edge id=":246686983_9" function="internal">
        <lane id=":246686983_9_0" index="0" disallow="tram rail_urban rail rail_electric rail_fast ship" speed="7.46" length="8.43" shape="738.25,533.94 736.91,533.08 735.85,530.27 736.59,526.50"/>
    </edge>
    <edge id=":246686983_10" function="internal">
        <lane id=":246686983_10_0" index="0" disallow="tram rail_urban rail rail_electric rail_fast ship" speed="3.65" length="2.34" shape="742.95,534.08 743.41,533.30 744.66,532.59"/>
    </edge>
    <edge id=":246686983_3" function="internal">
        <lane id=":246686983_3_0" index="0" disallow="tram rail_urban rail rail_electric rail_fast ship" speed="6.02" length="9.29" shape="739.92,526.74 739.44,529.12 740.07,530.89 741.81,532.05 744.66,532.59"/>
    </edge>
    <edge id=":246686983_4" function="internal">
        <lane id=":246686983_4_0" index="0" disallow="tram rail_urban rail rail_electric rail_fast ship" speed="9.12" length="13.62" shape="739.92,526.74 738.09,530.48 735.89,533.13 733.32,534.72 730.37,535.23"/>
    </edge>
    <edge id=":246686983_5" function="internal">
        <lane id=":246686983_5_0" index="0" disallow="tram rail_urban rail rail_electric rail_fast ship" speed="3.71" length="4.89" shape="739.92,526.74 739.00,527.94 738.14,528.29 737.33,527.82 736.59,526.50"/>
    </edge>
    <edge id=":246686983_6" function="internal">
        <lane id=":246686983_6_0" index="0" disallow="tram rail_urban rail rail_electric rail_fast ship" speed="7.45" length="8.84" shape="730.40,532.03 732.30,531.69 733.97,530.66 735.40,528.93 736.59,526.50"/>
    </edge>
    <edge id=":246686983_7" function="internal">
        <lane id=":246686983_7_0" index="0" disallow="tram rail_urban rail rail_electric rail_fast ship" speed="13.89" length="14.27" shape="730.40,532.03 744.66,532.59"/>
    </edge>
    <edge id=":246686983_8" function="internal">
        <lane id=":246686983_8_0" index="0" disallow="tram rail_urban rail rail_electric rail_fast ship" speed="3.65" length="2.34" shape="730.40,532.03 731.59,532.84 731.99,533.64"/>
    </edge>
    <edge id=":246686983_11" function="internal">
        <lane id=":246686983_11_0" index="0" disallow="tram rail_urban rail rail_electric rail_fast ship" speed="3.65" length="2.34" shape="731.99,533.64 731.58,534.44 730.37,535.23"/>
    </edge>
    <edge id=":246686987_0" function="internal">
        <lane id=":246686987_0_0" index="0" disallow="tram rail_urban rail rail_electric rail_fast ship" speed="13.89" length="14.69" shape="781.39,419.06 778.35,433.44"/>
    </edge>
    <edge id=":246686987_1" function="internal">
        <lane id=":246686987_1_0" index="0" disallow="tram rail_urban rail rail_electric rail_fast ship" speed="7.89" length="6.28" shape="781.39,419.06 780.13,422.86 778.60,424.55"/>
    </edge>
    <edge id=":246686987_2" function="internal">
        <lane id=":246686987_2_0" index="0" disallow="tram rail_urban rail rail_electric rail_fast ship" speed="3.65" length="2.34" shape="781.39,419.06 780.39,420.10 779.53,420.36"/>
    </edge>
    <edge id=":246686987_9" function="internal">
        <lane id=":246686987_9_0" index="0" disallow="tram rail_urban rail rail_electric rail_fast ship" speed="7.89" length="8.17" shape="778.60,424.55 777.97,425.25 774.89,426.25 770.92,425.84"/>
    </edge>
    <edge id=":246686987_10" function="internal">
        <lane id=":246686987_10_0" index="0" disallow="tram rail_urban rail rail_electric rail_fast ship" speed="3.65" length="2.34" shape="779.53,420.36 778.82,419.82 778.24,418.50"/>
    </edge>
    <edge id=":246686987_3" function="internal">
        <lane id=":246686987_3_0" index="0" disallow="tram rail_urban rail rail_electric rail_fast ship" speed="6.37" length="9.04" shape="771.69,422.74 774.18,422.99 776.10,422.37 777.45,420.87 778.24,418.50"/>
    </edge>
    <edge id=":246686987_4" function="internal">
        <lane id=":246686987_4_0" index="0" disallow="tram rail_urban rail rail_electric rail_fast ship" speed="8.06" length="14.36" shape="771.69,422.74 775.39,424.22 777.73,426.50 778.72,429.57 778.35,433.44"/>
    </edge>
    <edge id=":246686987_5" function="internal">
        <lane id=":246686987_5_0" index="0" disallow="tram rail_urban rail rail_electric rail_fast ship" speed="3.65" length="4.67" shape="771.69,422.74 772.66,423.80 772.86,424.68 772.28,425.36 770.92,425.84"/>
    </edge>
    <edge id=":246686987_6" function="internal">
        <lane id=":246686987_6_0" index="0" disallow="tram rail_urban rail rail_electric rail_fast ship" speed="6.58" length="9.22" shape="775.25,432.68 775.47,430.22 774.83,428.26 773.31,426.80 770.92,425.84"/>
    </edge>
    <edge id=":246686987_7" function="internal">
        <lane id=":246686987_7_0" index="0" disallow="tram rail_urban rail rail_electric rail_fast ship" speed="13.89" length="14.50" shape="775.25,432.68 778.24,418.50"/>
    </edge>
    <edge id=":246686987_8" function="internal">
        <lane id=":246686987_8_0" index="0" disallow="tram rail_urban rail rail_electric rail_fast ship" speed="3.65" length="2.34" shape="775.25,432.68 776.31,431.71 777.18,431.51"/>
    </edge>
    <edge id=":246686987_11" function="internal">
        <lane id=":246686987_11_0" index="0" disallow="tram rail_urban rail rail_electric rail_fast ship" speed="3.65" length="2.34" shape="777.18,431.51 777.86,432.08 778.35,433.44"/>
    </edge>
    <edge id=":246686988_0" function="internal">
        <lane id=":246686988_0_0" index="0" disallow="tram rail_urban rail rail_electric rail_fast ship" speed="3.65" length="4.67" shape="784.78,382.19 785.78,381.15 786.64,380.90 787.35,381.44 787.93,382.76"/>
    </edge>
    <edge id=":246686989_0" function="internal">
        <lane id=":246686989_0_0" index="0" disallow="tram rail_urban rail rail_electric rail_fast ship" speed="13.89" length="14.64" shape="577.85,443.99 575.26,429.58"/>
    </edge>
    <edge id=":246686989_1" function="internal">
        <lane id=":246686989_1_0" index="0" disallow="tram rail_urban rail rail_electric rail_fast ship" speed="7.50" length="6.04" shape="577.85,443.99 577.78,439.37 578.42,438.10"/>
    </edge>
    <edge id=":246686989_2" function="internal">
        <lane id=":246686989_2_0" index="0" disallow="tram rail_urban rail rail_electric rail_fast ship" speed="3.65" length="2.34" shape="577.85,443.99 578.46,442.68 579.18,442.16"/>
    </edge>
    <edge id=":246686989_9" function="internal">
        <lane id=":246686989_9_0" index="0" disallow="tram rail_urban rail rail_electric rail_fast ship" speed="7.50" length="9.82" shape="578.42,438.10 579.27,436.41 582.31,435.11 586.92,435.47"/>
    </edge>
    <edge id=":246686989_10" function="internal">
        <lane id=":246686989_10_0" index="0" disallow="tram rail_urban rail rail_electric rail_fast ship" speed="3.65" length="2.34" shape="579.18,442.16 580.04,442.43 581.01,443.49"/>
    </edge>
    <edge id=":246686989_3" function="internal">
        <lane id=":246686989_3_0" index="0" disallow="tram rail_urban rail rail_electric rail_fast ship" speed="5.85" length="9.12" shape="586.23,438.59 583.58,438.39 581.83,439.13 580.97,440.84 581.01,443.49"/>
    </edge>
    <edge id=":246686989_4" function="internal">
        <lane id=":246686989_4_0" index="0" disallow="tram rail_urban rail rail_electric rail_fast ship" speed="9.90" length="15.04" shape="586.23,438.59 581.97,437.24 578.73,435.29 576.49,432.73 575.26,429.58"/>
    </edge>
    <edge id=":246686989_5" function="internal">
        <lane id=":246686989_5_0" index="0" disallow="tram rail_urban rail rail_electric rail_fast ship" speed="3.65" length="4.67" shape="586.23,438.59 585.23,437.55 585.01,436.69 585.57,435.99 586.92,435.47"/>
    </edge>
    <edge id=":246686989_6" function="internal">
        <lane id=":246686989_6_0" index="0" disallow="tram rail_urban rail rail_electric rail_fast ship" speed="8.67" length="11.38" shape="578.38,428.90 579.30,431.15 581.03,433.00 583.57,434.44 586.92,435.47"/>
    </edge>
    <edge id=":246686989_7" function="internal">
        <lane id=":246686989_7_0" index="0" disallow="tram rail_urban rail rail_electric rail_fast ship" speed="13.89" length="14.83" shape="578.38,428.90 581.01,443.49"/>
    </edge>
    <edge id=":246686989_8" function="internal">
        <lane id=":246686989_8_0" index="0" disallow="tram rail_urban rail rail_electric rail_fast ship" speed="3.65" length="2.34" shape="578.38,428.90 577.86,430.24 577.16,430.80"/>
    </edge>
    <edge id=":246686989_11" function="internal">
        <lane id=":246686989_11_0" index="0" disallow="tram rail_urban rail rail_electric rail_fast ship" speed="3.65" length="2.34" shape="577.16,430.80 576.29,430.58 575.26,429.58"/>
    </edge>
    <edge id=":246686990_0" function="internal">
        <lane id=":246686990_0_0" index="0" disallow="tram rail_urban rail rail_electric rail_fast ship" speed="13.89" length="14.39" shape="668.82,456.86 654.77,453.74"/>
    </edge>
    <edge id=":246686990_1" function="internal">
        <lane id=":246686990_1_0" index="0" disallow="tram rail_urban rail rail_electric rail_fast ship" speed="8.02" length="5.91" shape="668.82,456.86 665.19,455.48 663.72,454.09"/>
    </edge>
    <edge id=":246686990_2" function="internal">
        <lane id=":246686990_2_0" index="0" disallow="tram rail_urban rail rail_electric rail_fast ship" speed="3.65" length="2.34" shape="668.82,456.86 667.82,455.82 667.60,454.95"/>
    </edge>
    <edge id=":246686990_9" function="internal">