<?xml version="1.0" encoding="UTF-8"?>

<!-- generated on 2021-10-12 20:23:34 by Eclipse SUMO netconvert Version 1.9.2
<configuration xmlns:xsi="http://www.w3.org/2001/XMLSchema-instance" xsi:noNamespaceSchemaLocation="http://sumo.dlr.de/xsd/netconvertConfiguration.xsd">

    <input>
        <osm-files value="C:\Users\Mates\Desktop\SemProjekt\SUMO_python\maps\osm\filtered\dejvice_part_filtered.osm"/>
    </input>

    <output>
        <output-file value="C:\Users\Mates\Desktop\SemProjekt\SUMO_python\maps\sumo\dejvice_part.net.xml"/>
    </output>

    <projection>
        <proj.utm value="true"/>
    </projection>

    <processing>
        <geometry.remove value="true"/>
        <roundabouts.guess value="true"/>
    </processing>

    <ramp_guessing>
        <ramps.guess value="true"/>
    </ramp_guessing>

    <edge_removal>
        <remove-edges.isolated value="true"/>
    </edge_removal>

    <junctions>
        <junctions.join value="true"/>
    </junctions>

    <report>
        <aggregate-warnings value="5"/>
    </report>

</configuration>
-->

<net version="1.9" junctionCornerDetail="5" limitTurnSpeed="5.50" xmlns:xsi="http://www.w3.org/2001/XMLSchema-instance" xsi:noNamespaceSchemaLocation="http://sumo.dlr.de/xsd/net_file.xsd">

    <location netOffset="-456549.58,-5550032.66" convBoundary="0.00,0.00,1099.45,959.24" origBoundary="14.392383,50.101022,14.411015,50.110847" projParameter="+proj=utm +zone=33 +ellps=WGS84 +datum=WGS84 +units=m +no_defs"/>

    <type id="highway.bridleway" priority="1" numLanes="1" speed="2.78" allow="pedestrian" oneway="1" width="2.00"/>
    <type id="highway.bus_guideway" priority="1" numLanes="1" speed="27.78" allow="bus" oneway="1"/>
    <type id="highway.cycleway" priority="1" numLanes="1" speed="8.33" allow="bicycle" oneway="0" width="1.00"/>
    <type id="highway.footway" priority="1" numLanes="1" speed="2.78" allow="pedestrian" oneway="1" width="2.00"/>
    <type id="highway.ford" priority="1" numLanes="1" speed="2.78" allow="army" oneway="0"/>
    <type id="highway.living_street" priority="2" numLanes="1" speed="2.78" disallow="tram rail_urban rail rail_electric rail_fast ship" oneway="0"/>
    <type id="highway.motorway" priority="14" numLanes="2" speed="39.44" allow="private emergency authority army vip passenger hov taxi bus coach delivery truck trailer motorcycle evehicle custom1 custom2" oneway="1"/>
    <type id="highway.motorway_link" priority="9" numLanes="1" speed="22.22" allow="private emergency authority army vip passenger hov taxi bus coach delivery truck trailer motorcycle evehicle custom1 custom2" oneway="1"/>
    <type id="highway.path" priority="1" numLanes="1" speed="2.78" allow="pedestrian bicycle" oneway="0" width="2.00"/>
    <type id="highway.pedestrian" priority="1" numLanes="1" speed="2.78" allow="pedestrian" oneway="1" width="2.00"/>
    <type id="highway.primary" priority="12" numLanes="2" speed="27.78" disallow="tram rail_urban rail rail_electric rail_fast ship" oneway="0"/>
    <type id="highway.primary_link" priority="7" numLanes="1" speed="22.22" disallow="tram rail_urban rail rail_electric rail_fast ship" oneway="0"/>
    <type id="highway.raceway" priority="15" numLanes="2" speed="83.33" allow="vip" oneway="0"/>
    <type id="highway.residential" priority="3" numLanes="1" speed="13.89" disallow="tram rail_urban rail rail_electric rail_fast ship" oneway="0"/>
    <type id="highway.secondary" priority="11" numLanes="1" speed="27.78" disallow="tram rail_urban rail rail_electric rail_fast ship" oneway="0"/>
    <type id="highway.secondary_link" priority="6" numLanes="1" speed="22.22" disallow="tram rail_urban rail rail_electric rail_fast ship" oneway="0"/>
    <type id="highway.service" priority="1" numLanes="1" speed="5.56" allow="pedestrian delivery bicycle" oneway="0"/>
    <type id="highway.stairs" priority="1" numLanes="1" speed="1.39" allow="pedestrian" oneway="1" width="2.00"/>
    <type id="highway.step" priority="1" numLanes="1" speed="1.39" allow="pedestrian" oneway="1" width="2.00"/>
    <type id="highway.steps" priority="1" numLanes="1" speed="1.39" allow="pedestrian" oneway="1" width="2.00"/>
    <type id="highway.tertiary" priority="10" numLanes="1" speed="22.22" disallow="tram rail_urban rail rail_electric rail_fast ship" oneway="0"/>
    <type id="highway.tertiary_link" priority="5" numLanes="1" speed="22.22" disallow="tram rail_urban rail rail_electric rail_fast ship" oneway="0"/>
    <type id="highway.track" priority="1" numLanes="1" speed="5.56" allow="pedestrian motorcycle moped bicycle" oneway="0"/>
    <type id="highway.trunk" priority="13" numLanes="2" speed="27.78" disallow="pedestrian bicycle tram rail_urban rail rail_electric rail_fast ship" oneway="0"/>
    <type id="highway.trunk_link" priority="8" numLanes="1" speed="22.22" disallow="pedestrian bicycle tram rail_urban rail rail_electric rail_fast ship" oneway="0"/>
    <type id="highway.unclassified" priority="4" numLanes="1" speed="13.89" disallow="tram rail_urban rail rail_electric rail_fast ship" oneway="0"/>
    <type id="highway.unsurfaced" priority="1" numLanes="1" speed="8.33" disallow="tram rail_urban rail rail_electric rail_fast ship" oneway="0"/>
    <type id="railway.highspeed" priority="21" numLanes="1" speed="69.44" allow="rail_fast" oneway="1"/>
    <type id="railway.light_rail" priority="19" numLanes="1" speed="27.78" allow="rail_urban" oneway="1"/>
    <type id="railway.preserved" priority="16" numLanes="1" speed="27.78" allow="rail" oneway="1"/>
    <type id="railway.rail" priority="20" numLanes="1" speed="44.44" allow="rail" oneway="1"/>
    <type id="railway.subway" priority="18" numLanes="1" speed="27.78" allow="rail_urban" oneway="1"/>
    <type id="railway.tram" priority="17" numLanes="1" speed="13.89" allow="tram" oneway="1"/>

    <edge id=":1033069584_0" function="internal">
        <lane id=":1033069584_0_0" index="0" disallow="tram rail_urban rail rail_electric rail_fast ship" speed="3.65" length="4.67" shape="947.35,565.85 947.48,567.29 947.11,568.10 946.23,568.29 944.86,567.86"/>
    </edge>
    <edge id=":1423430410_0" function="internal">
        <lane id=":1423430410_0_0" index="0" disallow="tram rail_urban rail rail_electric rail_fast ship" speed="27.78" length="8.21" shape="176.61,611.16 176.69,613.57 177.12,615.21 177.55,616.85 177.61,619.26"/>
        <lane id=":1423430410_0_1" index="1" disallow="tram rail_urban rail rail_electric rail_fast ship" speed="27.78" length="8.21" shape="176.61,611.16 176.19,613.53 175.53,615.08 174.86,616.64 174.42,619.01"/>
    </edge>
    <edge id=":1423430411_0" function="internal">
        <lane id=":1423430411_0_0" index="0" disallow="tram rail_urban rail rail_electric rail_fast ship" speed="27.78" length="8.21" shape="166.74,742.87 166.81,745.28 167.23,746.91 167.67,748.55 167.74,750.96"/>
        <lane id=":1423430411_0_1" index="1" disallow="tram rail_urban rail rail_electric rail_fast ship" speed="27.78" length="8.21" shape="166.74,742.87 166.31,745.24 165.64,746.80 164.97,748.36 164.55,750.73"/>
    </edge>
    <edge id=":1489391407_0" function="internal">
        <lane id=":1489391407_0_0" index="0" disallow="tram rail_urban rail rail_electric rail_fast ship" speed="27.78" length="8.19" shape="146.32,724.04 146.20,721.63 145.74,720.00 145.30,718.36 145.22,715.96"/>
        <lane id=":1489391407_0_1" index="1" disallow="tram rail_urban rail rail_electric rail_fast ship" speed="27.78" length="8.19" shape="146.32,724.04 146.69,721.67 147.34,720.11 147.99,718.55 148.41,716.18"/>
    </edge>
    <edge id=":1642074702_0" function="internal">
        <lane id=":1642074702_0_0" index="0" disallow="tram rail_urban rail rail_electric rail_fast ship" speed="18.05" length="13.42" shape="961.26,377.71 957.91,364.71"/>
    </edge>
    <edge id=":1642074702_1" function="internal">
        <lane id=":1642074702_1_0" index="0" disallow="tram rail_urban rail rail_electric rail_fast ship" speed="3.65" length="2.34" shape="961.26,377.71 961.71,376.34 962.38,375.74"/>
    </edge>
    <edge id=":1642074702_8" function="internal">
        <lane id=":1642074702_8_0" index="0" disallow="tram rail_urban rail rail_electric rail_fast ship" speed="3.65" length="2.34" shape="962.38,375.74 963.26,375.92 964.34,376.87"/>
    </edge>
    <edge id=":1642074702_2" function="internal">
        <lane id=":1642074702_2_0" index="0" disallow="tram rail_urban rail rail_electric rail_fast ship" speed="9.29" length="12.12" shape="965.96,365.42 964.45,367.48 963.68,370.08 963.64,373.20 964.34,376.87"/>
    </edge>
    <edge id=":1642074702_3" function="internal">
        <lane id=":1642074702_3_0" index="0" disallow="tram rail_urban rail rail_electric rail_fast ship" speed="6.09" length="10.89" shape="965.96,365.42 963.05,367.67 960.74,368.30 959.02,367.31 957.91,364.71"/>
    </edge>
    <edge id=":1642074702_4" function="internal">
        <lane id=":1642074702_4_0" index="0" disallow="tram rail_urban rail rail_electric rail_fast ship" speed="18.05" length="13.33" shape="961.02,363.96 964.34,376.87"/>
    </edge>
    <edge id=":1642074702_5" function="internal">
        <lane id=":1642074702_5_0" index="0" disallow="tram rail_urban rail rail_electric rail_fast ship" speed="3.65" length="2.34" shape="961.02,363.96 960.52,365.32 959.83,365.89"/>
    </edge>
    <edge id=":1642074702_9" function="internal">
        <lane id=":1642074702_9_0" index="0" disallow="tram rail_urban rail rail_electric rail_fast ship" speed="3.65" length="2.34" shape="959.83,365.89 958.96,365.69 957.91,364.71"/>
    </edge>
    <edge id=":1642074702_6" function="internal">
        <lane id=":1642074702_6_0" index="0" disallow="tram rail_urban rail rail_electric rail_fast ship" speed="11.31" length="12.65" shape="956.43,376.92 957.74,374.34 958.42,371.44 958.48,368.23 957.91,364.71"/>
    </edge>
    <edge id=":1642074702_7" function="internal">
        <lane id=":1642074702_7_0" index="0" disallow="tram rail_urban rail rail_electric rail_fast ship" speed="6.08" length="12.00" shape="956.43,376.92 959.04,373.76 961.22,372.70 962.99,373.73 964.34,376.87"/>
    </edge>
    <edge id=":21312724_0" function="internal">
        <lane id=":21312724_0_0" index="0" disallow="tram rail_urban rail rail_electric rail_fast ship" speed="6.29" length="9.04" shape="184.67,497.81 184.82,500.32 185.75,502.10 187.46,503.14 189.96,503.46"/>
    </edge>
    <edge id=":21312724_1" function="internal">
        <lane id=":21312724_1_0" index="0" disallow="tram rail_urban rail rail_electric rail_fast ship" speed="27.78" length="11.24" shape="184.67,497.81 183.83,509.03"/>
    </edge>
    <edge id=":21312725_0" function="internal">
        <lane id=":21312725_0_0" index="0" disallow="tram rail_urban rail rail_electric rail_fast ship" speed="27.78" length="9.40" shape="182.25,533.58 181.65,542.96"/>
    </edge>
    <edge id=":21312725_1" function="internal">
        <lane id=":21312725_1_0" index="0" disallow="tram rail_urban rail rail_electric rail_fast ship" speed="6.09" length="7.76" shape="182.25,533.58 181.88,536.32 181.17,538.24 180.13,539.36 178.75,539.67"/>
    </edge>
    <edge id=":21312725_2" function="internal">
        <lane id=":21312725_2_0" index="0" disallow="tram rail_urban rail rail_electric rail_fast ship" speed="6.08" length="7.76" shape="178.95,536.48 180.28,536.95 181.18,538.19 181.63,540.19 181.65,542.96"/>
    </edge>
    <edge id=":21312725_3" function="internal">
        <lane id=":21312725_3_0" index="0" disallow="tram rail_urban rail rail_electric rail_fast ship" speed="3.65" length="4.67" shape="178.95,536.48 180.10,537.35 180.45,538.17 180.00,538.95 178.75,539.67"/>
    </edge>
    <edge id=":21312728_0" function="internal">
        <lane id=":21312728_0_0" index="0" disallow="tram rail_urban rail rail_electric rail_fast ship" speed="6.48" length="9.03" shape="155.29,499.81 157.77,499.68 159.60,498.78 160.78,497.13 161.32,494.70"/>
    </edge>
    <edge id=":21312728_1" function="internal">
        <lane id=":21312728_1_0" index="0" disallow="tram rail_urban rail rail_electric rail_fast ship" speed="27.78" length="11.17" shape="160.57,505.85 161.32,494.70"/>
    </edge>
    <edge id=":21312729_0" function="internal">
        <lane id=":21312729_0_0" index="0" disallow="tram rail_urban rail rail_electric rail_fast ship" speed="11.11" length="11.38" shape="164.24,538.78 161.10,538.34 158.67,537.66 156.24,537.01 153.09,536.64"/>
    </edge>
    <edge id=":21312729_1" function="internal">
        <lane id=":21312729_1_0" index="0" disallow="tram rail_urban rail rail_electric rail_fast ship" speed="7.33" length="11.72" shape="164.24,538.78 161.84,538.08 160.19,536.33 159.30,533.52 159.18,529.66"/>
    </edge>
    <edge id=":21312729_2" function="internal">
        <lane id=":21312729_2_0" index="0" disallow="tram rail_urban rail rail_electric rail_fast ship" speed="3.65" length="4.67" shape="164.24,538.78 163.09,537.91 162.74,537.09 163.19,536.31 164.44,535.59"/>
    </edge>
    <edge id=":21312729_3" function="internal">
        <lane id=":21312729_3_0" index="0" disallow="tram rail_urban rail rail_electric rail_fast ship" speed="6.80" length="10.25" shape="158.20,543.99 158.08,540.85 157.19,538.58 155.52,537.17 153.09,536.64"/>
    </edge>
    <edge id=":21312729_4" function="internal">
        <lane id=":21312729_4_0" index="0" disallow="tram rail_urban rail rail_electric rail_fast ship" speed="27.78" length="14.37" shape="158.20,543.99 159.18,529.66"/>
    </edge>
    <edge id=":21312729_5" function="internal">
        <lane id=":21312729_5_0" index="0" disallow="tram rail_urban rail rail_electric rail_fast ship" speed="7.36" length="11.74" shape="158.20,543.99 158.83,540.19 160.08,537.52 161.95,535.98 164.44,535.59"/>
    </edge>
    <edge id=":21598355_0" function="internal">
        <lane id=":21598355_0_0" index="0" disallow="tram rail_urban rail rail_electric rail_fast ship" speed="3.65" length="4.67" shape="7.41,392.36 6.26,391.48 5.92,390.65 6.37,389.88 7.63,389.17"/>
    </edge>
    <edge id=":251966_0" function="internal">
        <lane id=":251966_0_0" index="0" disallow="tram rail_urban rail rail_electric rail_fast ship" speed="6.59" length="8.66" shape="211.10,228.11 208.72,228.39 206.95,229.32 205.78,230.89 205.21,233.12"/>
    </edge>
    <edge id=":251966_1" function="internal">
        <lane id=":251966_1_0" index="0" disallow="tram rail_urban rail rail_electric rail_fast ship" speed="27.78" length="10.49" shape="206.16,222.68 205.21,233.12"/>
    </edge>
    <edge id=":25691716_0" function="internal">
        <lane id=":25691716_0_0" index="0" disallow="tram rail_urban rail rail_electric rail_fast ship" speed="3.65" length="4.67" shape="868.49,0.37 868.99,-0.98 869.68,-1.56 870.55,-1.35 871.60,-0.37"/>
    </edge>
    <edge id=":25950197_0" function="internal">
        <lane id=":25950197_0_0" index="0" disallow="tram rail_urban rail rail_electric rail_fast ship" speed="8.33" length="17.29" shape="319.88,237.74 315.89,236.73 311.48,235.63 307.05,234.69 302.99,234.12"/>
    </edge>
    <edge id=":25950197_1" function="internal">
        <lane id=":25950197_1_0" index="0" disallow="tram rail_urban rail rail_electric rail_fast ship" speed="3.65" length="4.67" shape="319.88,237.74 318.90,236.68 318.71,235.81 319.29,235.13 320.65,234.64"/>
    </edge>
    <edge id=":25950197_2" function="internal">
        <lane id=":25950197_2_0" index="0" disallow="tram rail_urban rail rail_electric rail_fast ship" speed="6.56" length="7.69" shape="316.39,229.05 316.61,231.09 317.39,232.70 318.74,233.88 320.65,234.64"/>
    </edge>
    <edge id=":25950197_3" function="internal">
        <lane id=":25950197_3_0" index="0" disallow="tram rail_urban rail rail_electric rail_fast ship" speed="8.28" length="15.88" shape="316.39,229.05 315.49,231.67 312.96,233.39 308.79,234.21 302.99,234.12"/>
    </edge>
    <edge id=":25950200_0" function="internal">
        <lane id=":25950200_0_0" index="0" disallow="tram rail_urban rail rail_electric rail_fast ship" speed="6.48" length="9.08" shape="528.14,312.87 525.69,312.29 523.67,312.64 522.07,313.90 520.89,316.08"/>
    </edge>
    <edge id=":25950200_1" function="internal">
        <lane id=":25950200_1_0" index="0" disallow="tram rail_urban rail rail_electric rail_fast ship" speed="13.89" length="11.22" shape="528.14,312.87 517.65,308.88"/>
    </edge>
    <edge id=":25950200_2" function="internal">
        <lane id=":25950200_2_0" index="0" disallow="tram rail_urban rail rail_electric rail_fast ship" speed="7.36" length="4.01" shape="528.14,312.87 526.05,311.47 525.40,310.11"/>
    </edge>
    <edge id=":25950200_3" function="internal">
        <lane id=":25950200_3_0" index="0" disallow="tram rail_urban rail rail_electric rail_fast ship" speed="3.65" length="2.34" shape="528.14,312.87 527.31,311.69 527.23,310.80"/>
    </edge>
    <edge id=":25950200_8" function="internal">
        <lane id=":25950200_8_0" index="0" disallow="tram rail_urban rail rail_electric rail_fast ship" speed="7.36" length="7.73" shape="525.40,310.11 525.00,309.29 525.00,306.34 526.03,302.61"/>
    </edge>
    <edge id=":25950200_9" function="internal">
        <lane id=":25950200_9_0" index="0" disallow="tram rail_urban rail rail_electric rail_fast ship" speed="3.65" length="2.34" shape="527.23,310.80 527.89,310.20 529.30,309.88"/>
    </edge>
    <edge id=":25950200_4" function="internal">
        <lane id=":25950200_4_0" index="0" disallow="tram rail_urban rail rail_electric rail_fast ship" speed="6.53" length="9.07" shape="518.77,305.88 521.20,306.41 523.23,306.05 524.84,304.78 526.03,302.61"/>
    </edge>
    <edge id=":25950200_5" function="internal">
        <lane id=":25950200_5_0" index="0" disallow="tram rail_urban rail rail_electric rail_fast ship" speed="13.89" length="11.27" shape="518.77,305.88 529.30,309.88"/>
    </edge>
    <edge id=":25950200_6" function="internal">
        <lane id=":25950200_6_0" index="0" disallow="tram rail_urban rail rail_electric rail_fast ship" speed="7.33" length="4.02" shape="518.77,305.88 520.83,307.23 521.51,308.63"/>
    </edge>
    <edge id=":25950200_7" function="internal">
        <lane id=":25950200_7_0" index="0" disallow="tram rail_urban rail rail_electric rail_fast ship" speed="3.65" length="2.34" shape="518.77,305.88 519.61,307.05 519.71,307.93"/>
    </edge>
    <edge id=":25950200_10" function="internal">
        <lane id=":25950200_10_0" index="0" disallow="tram rail_urban rail rail_electric rail_fast ship" speed="7.33" length="7.66" shape="521.51,308.63 521.87,309.39 521.89,312.33 520.89,316.08"/>
    </edge>
    <edge id=":25950200_11" function="internal">
        <lane id=":25950200_11_0" index="0" disallow="tram rail_urban rail rail_electric rail_fast ship" speed="3.65" length="2.34" shape="519.71,307.93 519.05,308.54 517.65,308.88"/>
    </edge>
    <edge id=":25950201_0" function="internal">
        <lane id=":25950201_0_0" index="0" disallow="tram rail_urban rail rail_electric rail_fast ship" speed="12.50" length="11.25" shape="648.43,357.39 637.89,353.46"/>
    </edge>
    <edge id=":25950201_1" function="internal">
        <lane id=":25950201_1_0" index="0" disallow="tram rail_urban rail rail_electric rail_fast ship" speed="7.31" length="4.03" shape="648.43,357.39 646.33,356.01 645.66,354.65"/>
    </edge>
    <edge id=":25950201_2" function="internal">
        <lane id=":25950201_2_0" index="0" disallow="tram rail_urban rail rail_electric rail_fast ship" speed="3.65" length="2.34" shape="648.43,357.39 647.59,356.22 647.50,355.33"/>
    </edge>
    <edge id=":25950201_9" function="internal">
        <lane id=":25950201_9_0" index="0" disallow="tram rail_urban rail rail_electric rail_fast ship" speed="7.31" length="7.70" shape="645.66,354.65 645.27,353.84 645.27,350.90 646.32,347.18"/>
    </edge>
    <edge id=":25950201_10" function="internal">
        <lane id=":25950201_10_0" index="0" disallow="tram rail_urban rail rail_electric rail_fast ship" speed="3.65" length="2.34" shape="647.50,355.33 648.16,354.72 649.56,354.39"/>
    </edge>
    <edge id=":25950201_3" function="internal">
        <lane id=":25950201_3_0" index="0" disallow="tram rail_urban rail rail_electric rail_fast ship" speed="6.56" length="9.12" shape="639.00,350.46 641.45,350.99 643.48,350.62 645.11,349.35 646.32,347.18"/>
    </edge>
    <edge id=":25950201_4" function="internal">
        <lane id=":25950201_4_0" index="0" disallow="tram rail_urban rail rail_electric rail_fast ship" speed="13.89" length="11.27" shape="639.00,350.46 649.56,354.39"/>
    </edge>
    <edge id=":25950201_5" function="internal">
        <lane id=":25950201_5_0" index="0" disallow="tram rail_urban rail rail_electric rail_fast ship" speed="3.65" length="2.34" shape="639.00,350.46 639.85,351.62 639.95,352.51"/>
    </edge>
    <edge id=":25950201_11" function="internal">
        <lane id=":25950201_11_0" index="0" disallow="tram rail_urban rail rail_electric rail_fast ship" speed="3.65" length="2.34" shape="639.95,352.51 639.30,353.13 637.89,353.46"/>
    </edge>
    <edge id=":25950201_6" function="internal">
        <lane id=":25950201_6_0" index="0" disallow="tram rail_urban rail rail_electric rail_fast ship" speed="6.48" length="9.03" shape="641.16,360.65 641.70,358.24 641.34,356.23 640.07,354.64 637.89,353.46"/>
    </edge>
    <edge id=":25950201_7" function="internal">
        <lane id=":25950201_7_0" index="0" disallow="tram rail_urban rail rail_electric rail_fast ship" speed="8.33" length="14.43" shape="641.16,360.65 646.32,347.18"/>
    </edge>
    <edge id=":25950201_8" function="internal">
        <lane id=":25950201_8_0" index="0" disallow="tram rail_urban rail rail_electric rail_fast ship" speed="7.35" length="11.77" shape="641.16,360.65 642.86,357.17 644.83,354.97 647.07,354.04 649.56,354.39"/>
    </edge>
    <edge id=":25950202_0" function="internal">
        <lane id=":25950202_0_0" index="0" disallow="tram rail_urban rail rail_electric rail_fast ship" speed="8.33" length="11.18" shape="692.99,240.88 682.54,236.92"/>
    </edge>
    <edge id=":25950202_1" function="internal">
        <lane id=":25950202_1_0" index="0" disallow="tram rail_urban rail rail_electric rail_fast ship" speed="6.52" length="9.03" shape="692.99,240.88 690.83,239.68 689.56,238.08 689.19,236.07 689.71,233.66"/>
    </edge>
    <edge id=":25950202_2" function="internal">
        <lane id=":25950202_2_0" index="0" disallow="tram rail_urban rail rail_electric rail_fast ship" speed="6.52" length="9.03" shape="685.81,244.13 686.34,241.72 685.97,239.71 684.70,238.11 682.54,236.92"/>
    </edge>
    <edge id=":25950202_3" function="internal">
        <lane id=":25950202_3_0" index="0" disallow="tram rail_urban rail rail_electric rail_fast ship" speed="8.33" length="11.18" shape="685.81,244.13 689.71,233.66"/>
    </edge>
    <edge id=":25950203_0" function="internal">
        <lane id=":25950203_0_0" index="0" disallow="tram rail_urban rail rail_electric rail_fast ship" speed="8.33" length="11.22" shape="572.50,195.29 561.99,191.36"/>
    </edge>
    <edge id=":25950203_1" function="internal">
        <lane id=":25950203_1_0" index="0" disallow="tram rail_urban rail rail_electric rail_fast ship" speed="6.57" length="9.10" shape="572.50,195.29 570.33,194.09 569.04,192.48 568.65,190.45 569.15,188.01"/>
    </edge>
    <edge id=":25950203_2" function="internal">
        <lane id=":25950203_2_0" index="0" disallow="tram rail_urban rail rail_electric rail_fast ship" speed="6.50" length="9.04" shape="565.28,198.56 565.82,196.14 565.45,194.13 564.17,192.54 561.99,191.36"/>
    </edge>
    <edge id=":25950203_3" function="internal">
        <lane id=":25950203_3_0" index="0" disallow="tram rail_urban rail rail_electric rail_fast ship" speed="8.33" length="11.23" shape="565.28,198.56 569.15,188.01"/>
    </edge>
    <edge id=":25950205_0" function="internal">
        <lane id=":25950205_0_0" index="0" disallow="tram rail_urban rail rail_electric rail_fast ship" speed="7.00" length="9.93" shape="932.09,257.17 931.09,254.56 929.56,252.82 927.51,251.95 924.92,251.95"/>
    </edge>
    <edge id=":25950205_1" function="internal">
        <lane id=":25950205_1_0" index="0" disallow="tram rail_urban rail rail_electric rail_fast ship" speed="22.22" length="12.03" shape="932.09,257.17 929.18,245.50"/>
    </edge>
    <edge id=":25950205_2" function="internal">
        <lane id=":25950205_2_0" index="0" disallow="tram rail_urban rail rail_electric rail_fast ship" speed="3.65" length="2.34" shape="932.09,257.17 932.58,255.82 933.27,255.24"/>
    </edge>
    <edge id=":25950205_9" function="internal">
        <lane id=":25950205_9_0" index="0" disallow="tram rail_urban rail rail_electric rail_fast ship" speed="3.65" length="2.34" shape="933.27,255.24 934.14,255.44 935.20,256.42"/>
    </edge>
    <edge id=":25950205_3" function="internal">
        <lane id=":25950205_3_0" index="0" disallow="tram rail_urban rail rail_electric rail_fast ship" speed="6.09" length="9.31" shape="939.68,250.25 937.15,250.60 935.56,251.74 934.91,253.68 935.20,256.42"/>
    </edge>
    <edge id=":25950205_4" function="internal">
        <lane id=":25950205_4_0" index="0" disallow="tram rail_urban rail rail_electric rail_fast ship" speed="8.33" length="14.88" shape="939.68,250.25 935.96,250.37 932.28,250.79 928.61,251.36 924.92,251.95"/>
    </edge>
    <edge id=":25950205_5" function="internal">
        <lane id=":25950205_5_0" index="0" disallow="tram rail_urban rail rail_electric rail_fast ship" speed="8.34" length="12.30" shape="939.68,250.25 935.53,249.89 932.40,248.97 930.28,247.51 929.18,245.50"/>
    </edge>
    <edge id=":25950205_6" function="internal">
        <lane id=":25950205_6_0" index="0" disallow="tram rail_urban rail rail_electric rail_fast ship" speed="22.22" length="12.08" shape="932.28,244.70 935.20,256.42"/>
    </edge>
    <edge id=":25950205_7" function="internal">
        <lane id=":25950205_7_0" index="0" disallow="tram rail_urban rail rail_electric rail_fast ship" speed="7.13" length="4.21" shape="932.28,244.70 932.39,247.37 931.63,248.71"/>
    </edge>
    <edge id=":25950205_8" function="internal">
        <lane id=":25950205_8_0" index="0" disallow="tram rail_urban rail rail_electric rail_fast ship" speed="3.65" length="2.34" shape="932.28,244.70 931.80,246.06 931.13,246.65"/>
    </edge>
    <edge id=":25950205_10" function="internal">
        <lane id=":25950205_10_0" index="0" disallow="tram rail_urban rail rail_electric rail_fast ship" speed="7.13" length="7.70" shape="931.63,248.71 931.20,249.46 928.71,250.99 924.92,251.95"/>
    </edge>
    <edge id=":25950205_11" function="internal">
        <lane id=":25950205_11_0" index="0" disallow="tram rail_urban rail rail_electric rail_fast ship" speed="3.65" length="2.34" shape="931.13,246.65 930.25,246.46 929.18,245.50"/>
    </edge>
    <edge id=":25950348_0" function="internal">
        <lane id=":25950348_0_0" index="0" disallow="tram rail_urban rail rail_electric rail_fast ship" speed="6.45" length="9.03" shape="196.63,361.35 196.70,363.84 197.55,365.68 199.18,366.89 201.60,367.45"/>
    </edge>
    <edge id=":25950348_1" function="internal">
        <lane id=":25950348_1_0" index="0" disallow="tram rail_urban rail rail_electric rail_fast ship" speed="27.78" length="11.24" shape="196.63,361.35 195.47,372.53"/>
    </edge>
    <edge id=":25950362_0" function="internal">
        <lane id=":25950362_0_0" index="0" disallow="tram rail_urban rail rail_electric rail_fast ship" speed="6.51" length="9.03" shape="235.58,369.58 238.04,369.38 239.85,368.44 241.01,366.75 241.50,364.33"/>
    </edge>
    <edge id=":25950362_1" function="internal">
        <lane id=":25950362_1_0" index="0" disallow="tram rail_urban rail rail_electric rail_fast ship" speed="11.11" length="11.06" shape="235.58,369.58 246.57,370.72"/>
    </edge>
    <edge id=":25950366_0" function="internal">
        <lane id=":25950366_0_0" index="0" disallow="tram rail_urban rail rail_electric rail_fast ship" speed="8.33" length="11.44" shape="279.14,375.45 282.30,375.88 284.79,376.32 287.25,376.89 290.33,377.74"/>
    </edge>
    <edge id=":25950366_1" function="internal">
        <lane id=":25950366_1_0" index="0" disallow="tram rail_urban rail rail_electric rail_fast ship" speed="6.33" length="9.04" shape="279.14,375.45 281.55,376.12 283.11,377.40 283.80,379.29 283.63,381.79"/>
    </edge>
    <edge id=":25950370_0" function="internal">
        <lane id=":25950370_0_0" index="0" disallow="tram rail_urban rail rail_electric rail_fast ship" speed="6.51" length="8.81" shape="331.27,383.80 330.81,386.16 331.20,388.12 332.44,389.69 334.54,390.86"/>
    </edge>
    <edge id=":25950370_1" function="internal">
        <lane id=":25950370_1_0" index="0" disallow="tram rail_urban rail rail_electric rail_fast ship" speed="8.33" length="10.78" shape="324.32,387.43 327.29,388.29 329.49,388.99 331.65,389.76 334.54,390.86"/>
    </edge>
    <edge id=":25950385_0" function="internal">
        <lane id=":25950385_0_0" index="0" disallow="tram rail_urban rail rail_electric rail_fast ship" speed="6.54" length="8.63" shape="256.37,508.96 256.20,511.32 256.79,513.21 258.15,514.63 260.27,515.59"/>
    </edge>
    <edge id=":25950385_1" function="internal">
        <lane id=":25950385_1_0" index="0" disallow="tram rail_urban rail rail_electric rail_fast ship" speed="8.33" length="10.50" shape="250.06,513.15 253.05,513.73 255.21,514.20 257.34,514.75 260.27,515.59"/>
    </edge>
    <edge id=":25950389_0" function="internal">