<?xml version="1.0" encoding="UTF-8"?>

<!-- generated on 2021-12-24 12:49:07 by Eclipse SUMO netedit Version 1.9.2
<configuration xmlns:xsi="http://www.w3.org/2001/XMLSchema-instance" xsi:noNamespaceSchemaLocation="http://sumo.dlr.de/xsd/netconvertConfiguration.xsd">

    <input>
        <sumo-net-file value="C:\Users\Mates\Desktop\SemProjekt\SUMO_python\maps\sumo\Dublin.net.xml"/>
    </input>

    <output>
        <output-file value="C:\Users\Mates\Desktop\SemProjekt\SUMO_python\maps\sumo\Dublin.net.xml"/>
    </output>

    <processing>
        <geometry.min-radius.fix.railways value="false"/>
        <geometry.max-grade.fix value="false"/>
        <offset.disable-normalization value="true"/>
        <lefthand value="false"/>
    </processing>

    <junctions>
        <no-turnarounds value="true"/>
        <junctions.corner-detail value="5"/>
        <junctions.limit-turn-speed value="5.5"/>
        <rectangular-lane-cut value="false"/>
    </junctions>

    <pedestrian>
        <walkingareas value="false"/>
    </pedestrian>

    <report>
        <aggregate-warnings value="5"/>
    </report>

</configuration>
-->

<net version="1.9" junctionCornerDetail="5" limitTurnSpeed="5.50" xmlns:xsi="http://www.w3.org/2001/XMLSchema-instance" xsi:noNamespaceSchemaLocation="http://sumo.dlr.de/xsd/net_file.xsd">

    <location netOffset="-682452.93,-5911439.35" convBoundary="0.00,388.19,3056.07,2750.97" origBoundary="-6.260046,53.319970,-6.213436,53.344624" projParameter="+proj=utm +zone=29 +ellps=WGS84 +datum=WGS84 +units=m +no_defs"/>

    <type id="highway.bridleway" priority="1" numLanes="1" speed="2.78" allow="pedestrian" oneway="1" width="2.00"/>
    <type id="highway.bus_guideway" priority="1" numLanes="1" speed="27.78" allow="bus" oneway="1"/>
    <type id="highway.cycleway" priority="1" numLanes="1" speed="8.33" allow="bicycle" oneway="1" width="1.00"/>
    <type id="highway.footway" priority="1" numLanes="1" speed="2.78" allow="pedestrian" oneway="1" width="2.00"/>
    <type id="highway.ford" priority="1" numLanes="1" speed="2.78" allow="army" oneway="1"/>
    <type id="highway.living_street" priority="2" numLanes="1" speed="2.78" disallow="tram rail_urban rail rail_electric rail_fast ship" oneway="1"/>
    <type id="highway.motorway" priority="14" numLanes="2" speed="39.44" allow="private emergency authority army vip passenger hov taxi bus coach delivery truck trailer motorcycle evehicle custom1 custom2" oneway="1"/>
    <type id="highway.motorway_link" priority="9" numLanes="1" speed="22.22" allow="private emergency authority army vip passenger hov taxi bus coach delivery truck trailer motorcycle evehicle custom1 custom2" oneway="1"/>
    <type id="highway.path" priority="1" numLanes="1" speed="2.78" allow="pedestrian bicycle" oneway="1" width="2.00"/>
    <type id="highway.pedestrian" priority="1" numLanes="1" speed="2.78" allow="pedestrian" oneway="1" width="2.00"/>
    <type id="highway.primary" priority="12" numLanes="2" speed="27.78" disallow="tram rail_urban rail rail_electric rail_fast ship" oneway="1"/>
    <type id="highway.primary_link" priority="7" numLanes="1" speed="22.22" disallow="tram rail_urban rail rail_electric rail_fast ship" oneway="1"/>
    <type id="highway.raceway" priority="15" numLanes="2" speed="83.33" allow="vip" oneway="1"/>
    <type id="highway.residential" priority="3" numLanes="1" speed="13.89" disallow="tram rail_urban rail rail_electric rail_fast ship" oneway="1"/>
    <type id="highway.secondary" priority="11" numLanes="1" speed="27.78" disallow="tram rail_urban rail rail_electric rail_fast ship" oneway="1"/>
    <type id="highway.secondary_link" priority="6" numLanes="1" speed="22.22" disallow="tram rail_urban rail rail_electric rail_fast ship" oneway="1"/>
    <type id="highway.service" priority="1" numLanes="1" speed="5.56" allow="pedestrian delivery bicycle" oneway="1"/>
    <type id="highway.stairs" priority="1" numLanes="1" speed="1.39" allow="pedestrian" oneway="1" width="2.00"/>
    <type id="highway.step" priority="1" numLanes="1" speed="1.39" allow="pedestrian" oneway="1" width="2.00"/>
    <type id="highway.steps" priority="1" numLanes="1" speed="1.39" allow="pedestrian" oneway="1" width="2.00"/>
    <type id="highway.tertiary" priority="10" numLanes="1" speed="22.22" disallow="tram rail_urban rail rail_electric rail_fast ship" oneway="1"/>
    <type id="highway.tertiary_link" priority="5" numLanes="1" speed="22.22" disallow="tram rail_urban rail rail_electric rail_fast ship" oneway="1"/>
    <type id="highway.track" priority="1" numLanes="1" speed="5.56" allow="pedestrian motorcycle moped bicycle" oneway="1"/>
    <type id="highway.trunk" priority="13" numLanes="2" speed="27.78" disallow="pedestrian bicycle tram rail_urban rail rail_electric rail_fast ship" oneway="1"/>
    <type id="highway.trunk_link" priority="8" numLanes="1" speed="22.22" disallow="pedestrian bicycle tram rail_urban rail rail_electric rail_fast ship" oneway="1"/>
    <type id="highway.unclassified" priority="4" numLanes="1" speed="13.89" disallow="tram rail_urban rail rail_electric rail_fast ship" oneway="1"/>
    <type id="highway.unsurfaced" priority="1" numLanes="1" speed="8.33" disallow="tram rail_urban rail rail_electric rail_fast ship" oneway="1"/>
    <type id="railway.highspeed" priority="21" numLanes="1" speed="69.44" allow="rail_fast" oneway="1"/>
    <type id="railway.light_rail" priority="19" numLanes="1" speed="27.78" allow="rail_urban" oneway="1"/>
    <type id="railway.preserved" priority="16" numLanes="1" speed="27.78" allow="rail" oneway="1"/>
    <type id="railway.rail" priority="20" numLanes="1" speed="44.44" allow="rail" oneway="1"/>
    <type id="railway.subway" priority="18" numLanes="1" speed="27.78" allow="rail_urban" oneway="1"/>
    <type id="railway.tram" priority="17" numLanes="1" speed="13.89" allow="tram" oneway="1"/>

    <edge id=":1101723011_0" function="internal">
        <lane id=":1101723011_0_0" index="0" disallow="tram rail_urban rail rail_electric rail_fast ship" speed="8.33" length="0.31" shape="798.07,2354.00 797.76,2354.04"/>
    </edge>
    <edge id=":1101723011_1" function="internal">
        <lane id=":1101723011_1_0" index="0" disallow="tram rail_urban rail rail_electric rail_fast ship" speed="3.65" length="2.34" shape="798.07,2354.00 796.78,2353.35 796.28,2352.61"/>
    </edge>
    <edge id=":1101723011_4" function="internal">
        <lane id=":1101723011_4_0" index="0" disallow="tram rail_urban rail rail_electric rail_fast ship" speed="3.65" length="2.34" shape="796.28,2352.61 796.58,2351.77 797.67,2350.82"/>
    </edge>
    <edge id=":1101723011_2" function="internal">
        <lane id=":1101723011_2_0" index="0" disallow="tram rail_urban rail rail_electric rail_fast ship" speed="8.33" length="0.29" shape="797.38,2350.86 797.67,2350.82"/>
    </edge>
    <edge id=":1101723011_3" function="internal">
        <lane id=":1101723011_3_0" index="0" disallow="tram rail_urban rail rail_electric rail_fast ship" speed="3.65" length="2.34" shape="797.38,2350.86 798.67,2351.51 799.16,2352.26"/>
    </edge>
    <edge id=":1101723011_5" function="internal">
        <lane id=":1101723011_5_0" index="0" disallow="tram rail_urban rail rail_electric rail_fast ship" speed="3.65" length="2.34" shape="799.16,2352.26 798.86,2353.10 797.76,2354.04"/>
    </edge>
    <edge id=":1253825668_0" function="internal">
        <lane id=":1253825668_0_0" index="0" disallow="tram rail_urban rail rail_electric rail_fast ship" speed="3.65" length="4.67" shape="1443.09,1883.94 1441.88,1884.72 1440.98,1884.77 1440.41,1884.09 1440.15,1882.67"/>
    </edge>
    <edge id=":1260858631_0" function="internal">
        <lane id=":1260858631_0_0" index="0" disallow="tram rail_urban rail rail_electric rail_fast ship" speed="3.65" length="4.67" shape="738.49,917.08 737.06,917.21 736.24,916.83 736.05,915.96 736.49,914.58"/>
    </edge>
    <edge id=":1260858669_0" function="internal">
        <lane id=":1260858669_0_0" index="0" disallow="tram rail_urban rail rail_electric rail_fast ship" speed="6.55" length="9.13" shape="754.70,911.39 752.85,909.66 750.91,908.93 748.87,909.19 746.74,910.45"/>
    </edge>
    <edge id=":1260858669_1" function="internal">
        <lane id=":1260858669_1_0" index="0" disallow="tram rail_urban rail rail_electric rail_fast ship" speed="7.94" length="14.32" shape="754.70,911.39 752.68,908.00 752.25,904.81 753.43,901.82 756.21,899.02"/>
    </edge>
    <edge id=":1260858669_2" function="internal">
        <lane id=":1260858669_2_0" index="0" disallow="tram rail_urban rail rail_electric rail_fast ship" speed="3.65" length="4.67" shape="754.70,911.39 754.57,909.95 754.94,909.14 755.81,908.94 757.19,909.37"/>
    </edge>
    <edge id=":1260858669_3" function="internal">
        <lane id=":1260858669_3_0" index="0" disallow="tram rail_urban rail rail_electric rail_fast ship" speed="6.43" length="9.03" shape="758.14,901.57 756.39,903.33 755.64,905.22 755.91,907.24 757.19,909.37"/>
    </edge>
    <edge id=":1260858669_4" function="internal">
        <lane id=":1260858669_4_0" index="0" disallow="tram rail_urban rail rail_electric rail_fast ship" speed="8.33" length="14.45" shape="758.14,901.57 746.74,910.45"/>
    </edge>
    <edge id=":1260858669_5" function="internal">
        <lane id=":1260858669_5_0" index="0" disallow="tram rail_urban rail rail_electric rail_fast ship" speed="3.65" length="4.67" shape="758.14,901.57 756.70,901.65 755.90,901.26 755.73,900.38 756.21,899.02"/>
    </edge>
    <edge id=":1260858669_6" function="internal">
        <lane id=":1260858669_6_0" index="0" disallow="tram rail_urban rail rail_electric rail_fast ship" speed="8.33" length="14.54" shape="744.74,907.95 756.21,899.02"/>
    </edge>
    <edge id=":1260858669_7" function="internal">
        <lane id=":1260858669_7_0" index="0" disallow="tram rail_urban rail rail_electric rail_fast ship" speed="8.04" length="14.28" shape="744.74,907.95 748.08,905.98 751.27,905.56 754.31,906.69 757.19,909.37"/>
    </edge>
    <edge id=":1260858669_8" function="internal">
        <lane id=":1260858669_8_0" index="0" disallow="tram rail_urban rail rail_electric rail_fast ship" speed="3.65" length="4.67" shape="744.74,907.95 746.17,907.83 746.99,908.20 747.18,909.07 746.74,910.45"/>
    </edge>
    <edge id=":1260858711_0" function="internal">
        <lane id=":1260858711_0_0" index="0" disallow="tram rail_urban rail rail_electric rail_fast ship" speed="3.65" length="4.67" shape="927.02,801.04 925.58,801.12 924.78,800.72 924.62,799.84 925.10,798.48"/>
    </edge>
    <edge id=":1260858713_0" function="internal">
        <lane id=":1260858713_0_0" index="0" disallow="tram rail_urban rail rail_electric rail_fast ship" speed="3.65" length="4.67" shape="777.66,882.80 779.09,882.72 779.90,883.12 780.06,883.99 779.58,885.36"/>
    </edge>
    <edge id=":1260858724_0" function="internal">
        <lane id=":1260858724_0_0" index="0" disallow="tram rail_urban rail rail_electric rail_fast ship" speed="13.89" length="0.10" shape="934.06,895.77 934.08,895.76"/>
        <lane id=":1260858724_0_1" index="1" disallow="tram rail_urban rail rail_electric rail_fast ship" speed="13.89" length="0.10" shape="932.48,892.98 932.39,893.04"/>
    </edge>
    <edge id=":1260858724_2" function="internal">
        <lane id=":1260858724_2_0" index="0" disallow="tram rail_urban rail rail_electric rail_fast ship" speed="3.65" length="2.34" shape="932.48,892.98 931.04,892.88 930.30,892.38"/>
    </edge>
    <edge id=":1260858724_7" function="internal">
        <lane id=":1260858724_7_0" index="0" disallow="tram rail_urban rail rail_electric rail_fast ship" speed="3.65" length="2.34" shape="930.30,892.38 930.25,891.49 930.90,890.20"/>
    </edge>
    <edge id=":1260858724_3" function="internal">
        <lane id=":1260858724_3_0" index="0" disallow="tram rail_urban rail rail_electric rail_fast ship" speed="13.89" length="0.34" shape="927.35,884.87 927.75,884.63"/>
        <lane id=":1260858724_3_1" index="1" disallow="tram rail_urban rail rail_electric rail_fast ship" speed="13.89" length="0.34" shape="929.03,887.59 929.32,887.41"/>
        <lane id=":1260858724_3_2" index="2" disallow="tram rail_urban rail rail_electric rail_fast ship" speed="13.89" length="0.34" shape="930.71,890.31 930.90,890.20"/>
    </edge>
    <edge id=":1260858724_6" function="internal">
        <lane id=":1260858724_6_0" index="0" disallow="tram rail_urban rail rail_electric rail_fast ship" speed="3.65" length="2.34" shape="930.71,890.31 932.15,890.36 932.92,890.83"/>
    </edge>
    <edge id=":1260858724_8" function="internal">
        <lane id=":1260858724_8_0" index="0" disallow="tram rail_urban rail rail_electric rail_fast ship" speed="3.65" length="2.34" shape="932.92,890.83 932.99,891.72 932.39,893.04"/>
    </edge>
    <edge id=":1260861251_0" function="internal">
        <lane id=":1260861251_0_0" index="0" disallow="tram rail_urban rail rail_electric rail_fast ship" speed="13.89" length="0.31" shape="1306.45,782.31 1306.25,782.55"/>
    </edge>
    <edge id=":1260861251_1" function="internal">
        <lane id=":1260861251_1_0" index="0" disallow="tram rail_urban rail rail_electric rail_fast ship" speed="3.65" length="2.34" shape="1306.45,782.31 1305.07,782.73 1304.20,782.54"/>
    </edge>
    <edge id=":1260861251_4" function="internal">
        <lane id=":1260861251_4_0" index="0" disallow="tram rail_urban rail rail_electric rail_fast ship" speed="3.65" length="2.34" shape="1304.20,782.54 1303.83,781.72 1303.97,780.29"/>
    </edge>
    <edge id=":1260861251_2" function="internal">
        <lane id=":1260861251_2_0" index="0" disallow="tram rail_urban rail rail_electric rail_fast ship" speed="13.89" length="0.26" shape="1303.80,780.49 1303.97,780.29"/>
    </edge>
    <edge id=":1260861251_3" function="internal">
        <lane id=":1260861251_3_0" index="0" disallow="tram rail_urban rail rail_electric rail_fast ship" speed="3.65" length="2.34" shape="1303.80,780.49 1305.19,780.09 1306.06,780.30"/>
    </edge>
    <edge id=":1260861251_5" function="internal">
        <lane id=":1260861251_5_0" index="0" disallow="tram rail_urban rail rail_electric rail_fast ship" speed="3.65" length="2.34" shape="1306.06,780.30 1306.41,781.12 1306.25,782.55"/>
    </edge>
    <edge id=":1260885026_0" function="internal">
        <lane id=":1260885026_0_0" index="0" disallow="tram rail_urban rail rail_electric rail_fast ship" speed="10.72" length="12.61" shape="1679.66,1903.73 1675.72,1903.10 1672.37,1903.07 1669.62,1903.65 1667.46,1904.83"/>
    </edge>
    <edge id=":1260885026_1" function="internal">
        <lane id=":1260885026_1_0" index="0" disallow="tram rail_urban rail rail_electric rail_fast ship" speed="7.41" length="16.69" shape="1679.66,1903.73 1674.96,1902.02 1672.76,1899.49 1673.05,1896.16 1675.83,1892.00"/>
    </edge>
    <edge id=":1260885026_2" function="internal">
        <lane id=":1260885026_2_0" index="0" disallow="tram rail_urban rail rail_electric rail_fast ship" speed="3.65" length="2.55" shape="1679.66,1903.73 1678.66,1902.69 1678.44,1901.82 1678.57,1901.66"/>
    </edge>
    <edge id=":1260885026_9" function="internal">
        <lane id=":1260885026_9_0" index="0" disallow="tram rail_urban rail rail_electric rail_fast ship" speed="3.65" length="2.13" shape="1678.57,1901.66 1679.00,1901.12 1680.34,1900.60"/>
    </edge>
    <edge id=":1260885026_3" function="internal">
        <lane id=":1260885026_3_0" index="0" disallow="tram rail_urban rail rail_electric rail_fast ship" speed="5.69" length="9.22" shape="1678.22,1894.12 1676.69,1896.42 1676.53,1898.26 1677.75,1899.65 1680.34,1900.60"/>
    </edge>
    <edge id=":1260885026_4" function="internal">
        <lane id=":1260885026_4_0" index="0" disallow="tram rail_urban rail rail_electric rail_fast ship" speed="13.89" length="15.21" shape="1678.22,1894.12 1675.70,1896.94 1673.07,1899.72 1670.32,1902.37 1667.46,1904.83"/>
    </edge>
    <edge id=":1260885026_5" function="internal">
        <lane id=":1260885026_5_0" index="0" disallow="tram rail_urban rail rail_electric rail_fast ship" speed="3.65" length="2.34" shape="1678.22,1894.12 1676.83,1894.49 1675.97,1894.26"/>
    </edge>
    <edge id=":1260885026_10" function="internal">
        <lane id=":1260885026_10_0" index="0" disallow="tram rail_urban rail rail_electric rail_fast ship" speed="3.65" length="2.34" shape="1675.97,1894.26 1675.63,1893.43 1675.83,1892.00"/>
    </edge>
    <edge id=":1260885026_6" function="internal">
        <lane id=":1260885026_6_0" index="0" disallow="tram rail_urban rail rail_electric rail_fast ship" speed="13.89" length="14.65" shape="1665.46,1902.33 1668.27,1899.93 1670.87,1897.41 1673.36,1894.76 1675.83,1892.00"/>
    </edge>
    <edge id=":1260885026_7" function="internal">
        <lane id=":1260885026_7_0" index="0" disallow="tram rail_urban rail rail_electric rail_fast ship" speed="11.83" length="5.18" shape="1665.46,1902.33 1668.24,1900.75 1670.17,1900.29"/>
    </edge>
    <edge id=":1260885026_8" function="internal">
        <lane id=":1260885026_8_0" index="0" disallow="tram rail_urban rail rail_electric rail_fast ship" speed="3.65" length="2.34" shape="1665.46,1902.33 1666.90,1902.21 1667.71,1902.59"/>
    </edge>
    <edge id=":1260885026_11" function="internal">
        <lane id=":1260885026_11_0" index="0" disallow="tram rail_urban rail rail_electric rail_fast ship" speed="11.83" length="10.26" shape="1670.17,1900.29 1671.64,1899.94 1675.68,1899.89 1680.34,1900.60"/>
    </edge>
    <edge id=":1260885026_12" function="internal">
        <lane id=":1260885026_12_0" index="0" disallow="tram rail_urban rail rail_electric rail_fast ship" speed="3.65" length="2.34" shape="1667.71,1902.59 1667.90,1903.46 1667.46,1904.83"/>
    </edge>
    <edge id=":1261227683_0" function="internal">
        <lane id=":1261227683_0_0" index="0" disallow="tram rail_urban rail rail_electric rail_fast ship" speed="9.50" length="7.92" shape="1608.74,1334.46 1606.55,1333.55 1604.94,1332.91 1603.36,1332.79 1601.24,1333.49"/>
    </edge>
    <edge id=":1261227683_1" function="internal">
        <lane id=":1261227683_1_0" index="0" disallow="tram rail_urban rail rail_electric rail_fast ship" speed="13.89" length="8.04" shape="1608.62,1330.31 1601.24,1333.49"/>
    </edge>
    <edge id=":1287551339_0" function="internal">
        <lane id=":1287551339_0_0" index="0" disallow="tram rail_urban rail rail_electric rail_fast ship" speed="13.89" length="0.31" shape="1195.28,2423.54 1195.25,2423.23"/>
    </edge>
    <edge id=":1287551339_1" function="internal">
        <lane id=":1287551339_1_0" index="0" disallow="tram rail_urban rail rail_electric rail_fast ship" speed="3.65" length="2.34" shape="1195.28,2423.54 1195.97,2422.27 1196.73,2421.80"/>
    </edge>
    <edge id=":1287551339_4" function="internal">
        <lane id=":1287551339_4_0" index="0" disallow="tram rail_urban rail rail_electric rail_fast ship" speed="3.65" length="2.34" shape="1196.73,2421.80 1197.57,2422.13 1198.47,2423.26"/>
    </edge>
    <edge id=":1287551339_2" function="internal">
        <lane id=":1287551339_2_0" index="0" disallow="tram rail_urban rail rail_electric rail_fast ship" speed="13.89" length="0.28" shape="1198.44,2422.98 1198.47,2423.26"/>
    </edge>
    <edge id=":1287551339_3" function="internal">
        <lane id=":1287551339_3_0" index="0" disallow="tram rail_urban rail rail_electric rail_fast ship" speed="3.65" length="2.34" shape="1198.44,2422.98 1197.74,2424.24 1196.97,2424.70"/>
    </edge>
    <edge id=":1287551339_5" function="internal">
        <lane id=":1287551339_5_0" index="0" disallow="tram rail_urban rail rail_electric rail_fast ship" speed="3.65" length="2.34" shape="1196.97,2424.70 1196.14,2424.36 1195.25,2423.23"/>
    </edge>
    <edge id=":130374293_0" function="internal">
        <lane id=":130374293_0_0" index="0" disallow="tram rail_urban rail rail_electric rail_fast ship" speed="8.33" length="10.88" shape="1004.74,2198.17 1002.89,2195.67 1001.58,2193.75 1000.38,2191.74 998.88,2189.02"/>
    </edge>
    <edge id=":130374293_1" function="internal">
        <lane id=":130374293_1_0" index="0" disallow="tram rail_urban rail rail_electric rail_fast ship" speed="3.65" length="4.67" shape="1004.74,2198.17 1004.66,2196.73 1005.06,2195.93 1005.94,2195.77 1007.30,2196.24"/>
    </edge>
    <edge id=":130374293_2" function="internal">
        <lane id=":130374293_2_0" index="0" disallow="tram rail_urban rail rail_electric rail_fast ship" speed="8.33" length="10.41" shape="1001.69,2187.49 1003.15,2190.15 1004.26,2192.02 1005.49,2193.81 1007.30,2196.24"/>
    </edge>
    <edge id=":130374293_3" function="internal">
        <lane id=":130374293_3_0" index="0" disallow="tram rail_urban rail rail_electric rail_fast ship" speed="3.65" length="4.67" shape="1001.69,2187.49 1001.56,2188.93 1001.05,2189.66 1000.16,2189.69 998.88,2189.02"/>
    </edge>
    <edge id=":130374293_4" function="internal">
        <lane id=":130374293_4_0" index="0" disallow="tram rail_urban rail rail_electric rail_fast ship" speed="6.51" length="8.96" shape="996.69,2196.59 998.64,2195.10 999.66,2193.35 999.74,2191.32 998.88,2189.02"/>
    </edge>
    <edge id=":130374293_5" function="internal">
        <lane id=":130374293_5_0" index="0" disallow="tram rail_urban rail rail_electric rail_fast ship" speed="7.66" length="11.57" shape="996.69,2196.59 1000.22,2194.97 1003.17,2194.37 1005.53,2194.80 1007.30,2196.24"/>
    </edge>
    <edge id=":130376867_0" function="internal">
        <lane id=":130376867_0_0" index="0" disallow="tram rail_urban rail rail_electric rail_fast ship" speed="6.64" length="9.18" shape="1024.54,2225.45 1022.86,2223.64 1020.97,2222.80 1018.87,2222.92 1016.56,2223.99"/>
    </edge>
    <edge id=":130376867_1" function="internal">
        <lane id=":130376867_1_0" index="0" disallow="tram rail_urban rail rail_electric rail_fast ship" speed="8.33" length="14.43" shape="1024.54,2225.45 1016.23,2213.65"/>
    </edge>
    <edge id=":130376867_2" function="internal">
        <lane id=":130376867_2_0" index="0" disallow="tram rail_urban rail rail_electric rail_fast ship" speed="3.65" length="4.67" shape="1024.54,2225.45 1024.52,2224.00 1024.95,2223.22 1025.83,2223.09 1027.17,2223.62"/>
    </edge>
    <edge id=":130376867_3" function="internal">
        <lane id=":130376867_3_0" index="0" disallow="tram rail_urban rail rail_electric rail_fast ship" speed="8.33" length="14.48" shape="1018.83,2211.78 1027.17,2223.62"/>
    </edge>
    <edge id=":130376867_4" function="internal">
        <lane id=":130376867_4_0" index="0" disallow="tram rail_urban rail rail_electric rail_fast ship" speed="7.90" length="14.33" shape="1018.83,2211.78 1020.67,2215.31 1020.90,2218.51 1019.53,2221.41 1016.56,2223.99"/>
    </edge>
    <edge id=":130376867_5" function="internal">
        <lane id=":130376867_5_0" index="0" disallow="tram rail_urban rail rail_electric rail_fast ship" speed="3.65" length="4.67" shape="1018.83,2211.78 1018.88,2213.23 1018.46,2214.02 1017.58,2214.16 1016.23,2213.65"/>
    </edge>
    <edge id=":130376867_6" function="internal">
        <lane id=":130376867_6_0" index="0" disallow="tram rail_urban rail rail_electric rail_fast ship" speed="6.39" length="9.01" shape="1014.78,2221.33 1016.66,2219.70 1017.52,2217.88 1017.38,2215.86 1016.23,2213.65"/>
    </edge>
    <edge id=":130376867_7" function="internal">
        <lane id=":130376867_7_0" index="0" disallow="tram rail_urban rail rail_electric rail_fast ship" speed="8.12" length="14.26" shape="1014.78,2221.33 1018.36,2219.67 1021.62,2219.50 1024.55,2220.82 1027.17,2223.62"/>
    </edge>
    <edge id=":130376867_8" function="internal">
        <lane id=":130376867_8_0" index="0" disallow="tram rail_urban rail rail_electric rail_fast ship" speed="3.65" length="4.67" shape="1014.78,2221.33 1016.22,2221.33 1017.00,2221.77 1017.11,2222.66 1016.56,2223.99"/>
    </edge>
    <edge id=":130377917_0" function="internal">
        <lane id=":130377917_0_0" index="0" disallow="tram rail_urban rail rail_electric rail_fast ship" speed="3.65" length="4.67" shape="986.56,2243.26 985.12,2243.23 984.35,2242.77 984.26,2241.89 984.84,2240.56"/>
    </edge>
    <edge id=":132490139_0" function="internal">
        <lane id=":132490139_0_0" index="0" disallow="tram rail_urban rail rail_electric rail_fast ship" speed="13.89" length="15.20" shape="1606.15,1421.14 1599.62,1434.87"/>
    </edge>
    <edge id=":132490139_1" function="internal">
        <lane id=":132490139_1_0" index="0" disallow="tram rail_urban rail rail_electric rail_fast ship" speed="10.19" length="5.54" shape="1606.15,1421.14 1604.22,1423.93 1602.46,1425.17"/>
    </edge>
    <edge id=":132490139_2" function="internal">
        <lane id=":132490139_2_0" index="0" disallow="tram rail_urban rail rail_electric rail_fast ship" speed="3.65" length="2.34" shape="1606.15,1421.14 1604.92,1421.89 1604.02,1421.91"/>
    </edge>
    <edge id=":132490139_9" function="internal">
        <lane id=":132490139_9_0" index="0" disallow="tram rail_urban rail rail_electric rail_fast ship" speed="10.19" length="9.93" shape="1602.46,1425.17 1601.38,1425.94 1597.64,1427.18 1593.00,1427.66"/>
    </edge>
    <edge id=":132490139_10" function="internal">
        <lane id=":132490139_10_0" index="0" disallow="tram rail_urban rail rail_electric rail_fast ship" speed="3.65" length="2.34" shape="1604.02,1421.91 1603.47,1421.21 1603.25,1419.79"/>
    </edge>
    <edge id=":132490139_3" function="internal">
        <lane id=":132490139_3_0" index="0" disallow="tram rail_urban rail rail_electric rail_fast ship" speed="9.00" length="11.90" shape="1592.95,1424.46 1596.66,1424.11 1599.62,1423.22 1601.81,1421.78 1603.25,1419.79"/>
    </edge>
    <edge id=":132490139_4" function="internal">
        <lane id=":132490139_4_0" index="0" disallow="tram rail_urban rail rail_electric rail_fast ship" speed="7.43" length="16.41" shape="1592.95,1424.46 1597.78,1425.03 1600.51,1426.96 1601.12,1430.24 1599.62,1434.87"/>
    </edge>
    <edge id=":132490139_5" function="internal">
        <lane id=":132490139_5_0" index="0" disallow="tram rail_urban rail rail_electric rail_fast ship" speed="3.65" length="4.67" shape="1592.95,1424.46 1594.16,1425.24 1594.58,1426.03 1594.19,1426.84 1593.00,1427.66"/>
    </edge>
    <edge id=":132490139_6" function="internal">
        <lane id=":132490139_6_0" index="0" disallow="tram rail_urban rail rail_electric rail_fast ship" speed="5.73" length="9.18" shape="1596.74,1433.49 1597.58,1430.89 1597.23,1429.06 1595.71,1427.98 1593.00,1427.66"/>
    </edge>
    <edge id=":132490139_7" function="internal">
        <lane id=":132490139_7_0" index="0" disallow="tram rail_urban rail rail_electric rail_fast ship" speed="13.89" length="15.17" shape="1596.74,1433.49 1603.25,1419.79"/>
    </edge>
    <edge id=":132490139_8" function="internal">
        <lane id=":132490139_8_0" index="0" disallow="tram rail_urban rail rail_electric rail_fast ship" speed="3.65" length="2.34" shape="1596.74,1433.49 1597.98,1432.75 1598.87,1432.74"/>
    </edge>
    <edge id=":132490139_11" function="internal">
        <lane id=":132490139_11_0" index="0" disallow="tram rail_urban rail rail_electric rail_fast ship" speed="3.65" length="2.34" shape="1598.87,1432.74 1599.42,1433.44 1599.62,1434.87"/>
    </edge>
    <edge id=":132490146_0" function="internal">
        <lane id=":132490146_0_0" index="0" disallow="tram rail_urban rail rail_electric rail_fast ship" speed="8.33" length="10.74" shape="1508.48,1436.70 1506.56,1437.31 1504.73,1438.75 1502.98,1441.02 1501.32,1444.13"/>
    </edge>
    <edge id=":132490146_1" function="internal">
        <lane id=":132490146_1_0" index="0" disallow="tram rail_urban rail rail_electric rail_fast ship" speed="8.33" length="14.78" shape="1508.48,1436.70 1493.81,1438.43"/>
    </edge>
    <edge id=":132490146_2" function="internal">
        <lane id=":132490146_2_0" index="0" disallow="tram rail_urban rail rail_electric rail_fast ship" speed="3.65" length="4.67" shape="1508.48,1436.70 1507.21,1436.02 1506.74,1435.27 1507.06,1434.43 1508.17,1433.52"/>
    </edge>
    <edge id=":132490146_3" function="internal">
        <lane id=":132490146_3_0" index="0" disallow="tram rail_urban rail rail_electric rail_fast ship" speed="8.33" length="14.89" shape="1493.39,1435.25 1508.17,1433.52"/>
    </edge>
    <edge id=":132490146_4" function="internal">
        <lane id=":132490146_4_0" index="0" disallow="tram rail_urban rail rail_electric rail_fast ship" speed="7.28" length="16.52" shape="1493.39,1435.25 1498.68,1435.17 1501.76,1436.62 1502.64,1439.61 1501.32,1444.13"/>
    </edge>
    <edge id=":132490146_5" function="internal">
        <lane id=":132490146_5_0" index="0" disallow="tram rail_urban rail rail_electric rail_fast ship" speed="3.65" length="4.67" shape="1493.39,1435.25 1494.68,1435.89 1495.18,1436.63 1494.89,1437.48 1493.81,1438.43"/>
    </edge>
    <edge id=":132490146_6" function="internal">
        <lane id=":132490146_6_0" index="0" disallow="tram rail_urban rail rail_electric rail_fast ship" speed="5.61" length="9.22" shape="1498.09,1443.49 1498.85,1440.92 1498.40,1439.23 1496.71,1438.39 1493.81,1438.43"/>
    </edge>
    <edge id=":132490146_7" function="internal">
        <lane id=":132490146_7_0" index="0" disallow="tram rail_urban rail rail_electric rail_fast ship" speed="8.33" length="14.79" shape="1498.09,1443.49 1500.34,1439.34 1502.77,1436.29 1505.38,1434.35 1508.17,1433.52"/>
    </edge>
    <edge id=":132490146_8" function="internal">