<?xml version="1.0" encoding="UTF-8"?>

<!-- generated on 2021-11-27 16:57:50 by Eclipse SUMO netedit Version 1.9.2
<configuration xmlns:xsi="http://www.w3.org/2001/XMLSchema-instance" xsi:noNamespaceSchemaLocation="http://sumo.dlr.de/xsd/netconvertConfiguration.xsd">

    <input>
        <sumo-net-file value="C:\Users\Mates\Desktop\SemProjekt\SUMO_python\maps\sumo\newyork.net.xml"/>
    </input>

    <output>
        <output-file value="C:\Users\Mates\Desktop\SemProjekt\SUMO_python\maps\sumo\newyork.net.xml"/>
    </output>

    <processing>
        <geometry.min-radius.fix.railways value="false"/>
        <geometry.max-grade.fix value="false"/>
        <offset.disable-normalization value="true"/>
        <lefthand value="false"/>
    </processing>

    <junctions>
        <no-turnarounds value="true"/>
        <junctions.corner-detail value="5"/>
        <junctions.limit-turn-speed value="5.5"/>
        <rectangular-lane-cut value="false"/>
    </junctions>

    <pedestrian>
        <walkingareas value="false"/>
    </pedestrian>

    <report>
        <aggregate-warnings value="5"/>
    </report>

</configuration>
-->

<net version="1.9" junctionCornerDetail="5" limitTurnSpeed="5.50" xmlns:xsi="http://www.w3.org/2001/XMLSchema-instance" xsi:noNamespaceSchemaLocation="http://sumo.dlr.de/xsd/net_file.xsd">

    <location netOffset="-592248.66,-4518516.84" convBoundary="215.07,1011.29,1885.59,3310.50" origBoundary="-73.905849,40.812476,-73.882837,40.842190" projParameter="+proj=utm +zone=18 +ellps=WGS84 +datum=WGS84 +units=m +no_defs"/>

    <type id="highway.bridleway" priority="1" numLanes="1" speed="2.78" allow="pedestrian" oneway="1" width="2.00"/>
    <type id="highway.bus_guideway" priority="1" numLanes="1" speed="27.78" allow="bus" oneway="1"/>
    <type id="highway.cycleway" priority="1" numLanes="1" speed="8.33" allow="bicycle" oneway="1" width="1.00"/>
    <type id="highway.footway" priority="1" numLanes="1" speed="2.78" allow="pedestrian" oneway="1" width="2.00"/>
    <type id="highway.ford" priority="1" numLanes="1" speed="2.78" allow="army" oneway="1"/>
    <type id="highway.living_street" priority="2" numLanes="1" speed="2.78" disallow="tram rail_urban rail rail_electric rail_fast ship" oneway="1"/>
    <type id="highway.motorway" priority="14" numLanes="2" speed="39.44" allow="private emergency authority army vip passenger hov taxi bus coach delivery truck trailer motorcycle evehicle custom1 custom2" oneway="1"/>
    <type id="highway.motorway_link" priority="9" numLanes="1" speed="22.22" allow="private emergency authority army vip passenger hov taxi bus coach delivery truck trailer motorcycle evehicle custom1 custom2" oneway="1"/>
    <type id="highway.path" priority="1" numLanes="1" speed="2.78" allow="pedestrian bicycle" oneway="1" width="2.00"/>
    <type id="highway.pedestrian" priority="1" numLanes="1" speed="2.78" allow="pedestrian" oneway="1" width="2.00"/>
    <type id="highway.primary" priority="12" numLanes="2" speed="27.78" disallow="tram rail_urban rail rail_electric rail_fast ship" oneway="1"/>
    <type id="highway.primary_link" priority="7" numLanes="1" speed="22.22" disallow="tram rail_urban rail rail_electric rail_fast ship" oneway="1"/>
    <type id="highway.raceway" priority="15" numLanes="2" speed="83.33" allow="vip" oneway="1"/>
    <type id="highway.residential" priority="3" numLanes="1" speed="13.89" disallow="tram rail_urban rail rail_electric rail_fast ship" oneway="1"/>
    <type id="highway.secondary" priority="11" numLanes="1" speed="27.78" disallow="tram rail_urban rail rail_electric rail_fast ship" oneway="1"/>
    <type id="highway.secondary_link" priority="6" numLanes="1" speed="22.22" disallow="tram rail_urban rail rail_electric rail_fast ship" oneway="1"/>
    <type id="highway.service" priority="1" numLanes="1" speed="5.56" allow="pedestrian delivery bicycle" oneway="1"/>
    <type id="highway.stairs" priority="1" numLanes="1" speed="1.39" allow="pedestrian" oneway="1" width="2.00"/>
    <type id="highway.step" priority="1" numLanes="1" speed="1.39" allow="pedestrian" oneway="1" width="2.00"/>
    <type id="highway.steps" priority="1" numLanes="1" speed="1.39" allow="pedestrian" oneway="1" width="2.00"/>
    <type id="highway.tertiary" priority="10" numLanes="1" speed="22.22" disallow="tram rail_urban rail rail_electric rail_fast ship" oneway="1"/>
    <type id="highway.tertiary_link" priority="5" numLanes="1" speed="22.22" disallow="tram rail_urban rail rail_electric rail_fast ship" oneway="1"/>
    <type id="highway.track" priority="1" numLanes="1" speed="5.56" allow="pedestrian motorcycle moped bicycle" oneway="1"/>
    <type id="highway.trunk" priority="13" numLanes="2" speed="27.78" disallow="pedestrian bicycle tram rail_urban rail rail_electric rail_fast ship" oneway="1"/>
    <type id="highway.trunk_link" priority="8" numLanes="1" speed="22.22" disallow="pedestrian bicycle tram rail_urban rail rail_electric rail_fast ship" oneway="1"/>
    <type id="highway.unclassified" priority="4" numLanes="1" speed="13.89" disallow="tram rail_urban rail rail_electric rail_fast ship" oneway="1"/>
    <type id="highway.unsurfaced" priority="1" numLanes="1" speed="8.33" disallow="tram rail_urban rail rail_electric rail_fast ship" oneway="1"/>
    <type id="railway.highspeed" priority="21" numLanes="1" speed="69.44" allow="rail_fast" oneway="1"/>
    <type id="railway.light_rail" priority="19" numLanes="1" speed="27.78" allow="rail_urban" oneway="1"/>
    <type id="railway.preserved" priority="16" numLanes="1" speed="27.78" allow="rail" oneway="1"/>
    <type id="railway.rail" priority="20" numLanes="1" speed="44.44" allow="rail" oneway="1"/>
    <type id="railway.subway" priority="18" numLanes="1" speed="27.78" allow="rail_urban" oneway="1"/>
    <type id="railway.tram" priority="17" numLanes="1" speed="13.89" allow="tram" oneway="1"/>

    <edge id=":2797690127_0" function="internal">
        <lane id=":2797690127_0_0" index="0" disallow="tram rail_urban rail rail_electric rail_fast ship" speed="13.89" length="6.69" shape="914.52,1720.41 914.20,1718.45 913.98,1717.09 913.96,1715.73 914.23,1713.78"/>
    </edge>
    <edge id=":2797690127_1" function="internal">
        <lane id=":2797690127_1_0" index="0" disallow="tram rail_urban rail rail_electric rail_fast ship" speed="10.52" length="6.64" shape="910.53,1719.06 911.99,1717.73 913.02,1716.76 913.73,1715.63 914.23,1713.78"/>
    </edge>
    <edge id=":2797690128_0" function="internal">
        <lane id=":2797690128_0_0" index="0" disallow="tram rail_urban rail rail_electric rail_fast ship" speed="6.42" length="9.04" shape="891.12,1740.64 889.48,1738.77 887.65,1737.91 885.62,1738.04 883.41,1739.18"/>
    </edge>
    <edge id=":2797690128_1" function="internal">
        <lane id=":2797690128_1_0" index="0" disallow="tram rail_urban rail rail_electric rail_fast ship" speed="13.89" length="11.25" shape="891.12,1740.64 884.83,1731.32"/>
    </edge>
    <edge id=":2797690128_2" function="internal">
        <lane id=":2797690128_2_0" index="0" disallow="tram rail_urban rail rail_electric rail_fast ship" speed="7.34" length="4.03" shape="891.12,1740.64 890.21,1738.24 890.46,1736.80"/>
    </edge>
    <edge id=":2797690128_3" function="internal">
        <lane id=":2797690128_3_0" index="0" disallow="tram rail_urban rail rail_electric rail_fast ship" speed="3.65" length="2.34" shape="891.12,1740.64 891.14,1739.20 891.59,1738.43"/>
    </edge>
    <edge id=":2797690128_8" function="internal">
        <lane id=":2797690128_8_0" index="0" disallow="tram rail_urban rail rail_electric rail_fast ship" speed="7.34" length="7.79" shape="890.46,1736.80 890.62,1735.84 892.34,1733.45 895.38,1731.05"/>
    </edge>
    <edge id=":2797690128_9" function="internal">
        <lane id=":2797690128_9_0" index="0" disallow="tram rail_urban rail rail_electric rail_fast ship" speed="3.65" length="2.34" shape="891.59,1738.43 892.48,1738.33 893.80,1738.89"/>
    </edge>
    <edge id=":2797690128_4" function="internal">
        <lane id=":2797690128_4_0" index="0" disallow="tram rail_urban rail rail_electric rail_fast ship" speed="6.62" length="9.14" shape="887.45,1729.49 889.16,1731.31 891.05,1732.19 893.12,1732.10 895.38,1731.05"/>
    </edge>
    <edge id=":2797690128_5" function="internal">
        <lane id=":2797690128_5_0" index="0" disallow="tram rail_urban rail rail_electric rail_fast ship" speed="13.89" length="11.35" shape="887.45,1729.49 893.80,1738.89"/>
    </edge>
    <edge id=":2797690128_6" function="internal">
        <lane id=":2797690128_6_0" index="0" disallow="tram rail_urban rail rail_electric rail_fast ship" speed="7.37" length="4.10" shape="887.45,1729.49 888.39,1731.80 888.15,1733.38"/>
    </edge>
    <edge id=":2797690128_7" function="internal">
        <lane id=":2797690128_7_0" index="0" disallow="tram rail_urban rail rail_electric rail_fast ship" speed="3.65" length="2.34" shape="887.45,1729.49 887.48,1730.93 887.06,1731.71"/>
    </edge>
    <edge id=":2797690128_10" function="internal">
        <lane id=":2797690128_10_0" index="0" disallow="tram rail_urban rail rail_electric rail_fast ship" speed="7.37" length="7.68" shape="888.15,1733.38 888.03,1734.19 886.37,1736.65 883.41,1739.18"/>
    </edge>
    <edge id=":2797690128_11" function="internal">
        <lane id=":2797690128_11_0" index="0" disallow="tram rail_urban rail rail_electric rail_fast ship" speed="3.65" length="2.34" shape="887.06,1731.71 886.17,1731.84 884.83,1731.32"/>
    </edge>
    <edge id=":2797690130_0" function="internal">
        <lane id=":2797690130_0_0" index="0" disallow="tram rail_urban rail rail_electric rail_fast ship" speed="13.89" length="6.17" shape="862.44,1758.57 860.86,1757.64 859.76,1757.02 858.58,1756.59 856.81,1756.19"/>
    </edge>
    <edge id=":2797690130_1" function="internal">
        <lane id=":2797690130_1_0" index="0" disallow="tram rail_urban rail rail_electric rail_fast ship" speed="8.02" length="2.38" shape="862.22,1754.26 860.66,1755.26 860.18,1755.47"/>
    </edge>
    <edge id=":2797690130_2" function="internal">
        <lane id=":2797690130_2_0" index="0" disallow="tram rail_urban rail rail_electric rail_fast ship" speed="8.02" length="3.50" shape="860.18,1755.47 859.23,1755.91 857.95,1756.22 856.81,1756.19"/>
    </edge>
    <edge id=":4202348585_0" function="internal">
        <lane id=":4202348585_0_0" index="0" disallow="tram rail_urban rail rail_electric rail_fast ship" speed="3.65" length="4.67" shape="445.99,2050.65 445.77,2049.23 446.09,2048.39 446.95,2048.14 448.35,2048.49"/>
    </edge>
    <edge id=":4202348586_0" function="internal">
        <lane id=":4202348586_0_0" index="0" disallow="tram rail_urban rail rail_electric rail_fast ship" speed="19.48" length="12.73" shape="518.83,2115.53 516.06,2113.64 513.34,2112.50 510.46,2111.65 507.19,2110.60"/>
    </edge>
    <edge id=":4202348586_1" function="internal">
        <lane id=":4202348586_1_0" index="0" disallow="tram rail_urban rail rail_electric rail_fast ship" speed="27.78" length="12.70" shape="518.83,2115.53 509.00,2107.49"/>
    </edge>
    <edge id=":4202348586_2" function="internal">
        <lane id=":4202348586_2_0" index="0" disallow="tram rail_urban rail rail_electric rail_fast ship" speed="3.65" length="2.34" shape="518.83,2115.53 518.43,2114.14 518.64,2113.27"/>
    </edge>
    <edge id=":4202348586_6" function="internal">
        <lane id=":4202348586_6_0" index="0" disallow="tram rail_urban rail rail_electric rail_fast ship" speed="3.65" length="2.34" shape="518.64,2113.27 519.47,2112.92 520.90,2113.09"/>
    </edge>
    <edge id=":4202348586_3" function="internal">
        <lane id=":4202348586_3_0" index="0" disallow="tram rail_urban rail rail_electric rail_fast ship" speed="27.78" length="12.70" shape="511.07,2105.04 520.90,2113.09"/>
    </edge>
    <edge id=":4202348586_4" function="internal">
        <lane id=":4202348586_4_0" index="0" disallow="tram rail_urban rail rail_electric rail_fast ship" speed="4.94" length="3.16" shape="511.07,2105.04 512.22,2107.06 511.98,2107.86"/>
    </edge>
    <edge id=":4202348586_5" function="internal">
        <lane id=":4202348586_5_0" index="0" disallow="tram rail_urban rail rail_electric rail_fast ship" speed="3.65" length="2.34" shape="511.07,2105.04 511.47,2106.43 511.25,2107.30"/>
    </edge>
    <edge id=":4202348586_7" function="internal">
        <lane id=":4202348586_7_0" index="0" disallow="tram rail_urban rail rail_electric rail_fast ship" speed="4.94" length="6.24" shape="511.98,2107.86 511.58,2109.17 509.71,2110.60 507.19,2110.60"/>
    </edge>
    <edge id=":4202348586_8" function="internal">
        <lane id=":4202348586_8_0" index="0" disallow="tram rail_urban rail rail_electric rail_fast ship" speed="3.65" length="2.34" shape="511.25,2107.30 510.43,2107.65 509.00,2107.49"/>
    </edge>
    <edge id=":42720069_0" function="internal">
        <lane id=":42720069_0_0" index="0" disallow="tram rail_urban rail rail_electric rail_fast ship" speed="6.63" length="9.19" shape="627.07,1980.16 624.52,1980.14 622.56,1980.90 621.20,1982.45 620.42,1984.80"/>
    </edge>
    <edge id=":42720069_1" function="internal">
        <lane id=":42720069_1_0" index="0" disallow="tram rail_urban rail rail_electric rail_fast ship" speed="3.65" length="2.34" shape="627.07,1980.16 626.00,1979.19 625.72,1978.34"/>
    </edge>
    <edge id=":42720069_6" function="internal">
        <lane id=":42720069_6_0" index="0" disallow="tram rail_urban rail rail_electric rail_fast ship" speed="3.65" length="2.34" shape="625.72,1978.34 626.23,1977.61 627.53,1976.99"/>
    </edge>
    <edge id=":42720069_2" function="internal">
        <lane id=":42720069_2_0" index="0" disallow="tram rail_urban rail rail_electric rail_fast ship" speed="6.44" length="9.03" shape="622.94,1970.61 622.85,1973.10 623.59,1974.99 625.15,1976.29 627.53,1976.99"/>
    </edge>
    <edge id=":42720069_3" function="internal">
        <lane id=":42720069_3_0" index="0" disallow="tram rail_urban rail rail_electric rail_fast ship" speed="13.89" length="14.41" shape="622.94,1970.61 620.42,1984.80"/>
    </edge>
    <edge id=":42720069_4" function="internal">
        <lane id=":42720069_4_0" index="0" disallow="tram rail_urban rail rail_electric rail_fast ship" speed="13.89" length="11.77" shape="616.36,1973.90 619.11,1975.52 621.61,1976.28 624.27,1976.62 627.53,1976.99"/>
    </edge>
    <edge id=":42720069_5" function="internal">
        <lane id=":42720069_5_0" index="0" disallow="tram rail_urban rail rail_electric rail_fast ship" speed="9.14" length="8.32" shape="616.36,1973.90 618.60,1976.02 620.02,1978.55 620.50,1980.83"/>
    </edge>
    <edge id=":42720069_7" function="internal">
        <lane id=":42720069_7_0" index="0" disallow="tram rail_urban rail rail_electric rail_fast ship" speed="9.14" length="3.99" shape="620.50,1980.83 620.63,1981.47 620.42,1984.80"/>
    </edge>
    <edge id=":42720071_0" function="internal">
        <lane id=":42720071_0_0" index="0" disallow="tram rail_urban rail rail_electric rail_fast ship" speed="9.71" length="14.29" shape="740.12,2003.95 738.63,2000.54 736.43,1997.94 733.52,1996.15 729.90,1995.17"/>
    </edge>
    <edge id=":42720071_1" function="internal">
        <lane id=":42720071_1_0" index="0" disallow="tram rail_urban rail rail_electric rail_fast ship" speed="22.22" length="18.02" shape="740.12,2003.95 734.92,1986.70"/>
    </edge>
    <edge id=":42720071_2" function="internal">
        <lane id=":42720071_2_0" index="0" disallow="tram rail_urban rail rail_electric rail_fast ship" speed="7.46" length="6.34" shape="740.12,2003.95 739.40,1999.24 739.92,1997.76"/>
    </edge>
    <edge id=":42720071_3" function="internal">
        <lane id=":42720071_3_0" index="0" disallow="tram rail_urban rail rail_electric rail_fast ship" speed="3.65" length="2.34" shape="740.12,2003.95 740.54,2002.57 741.19,2001.96"/>
    </edge>
    <edge id=":42720071_16" function="internal">
        <lane id=":42720071_16_0" index="0" disallow="tram rail_urban rail rail_electric rail_fast ship" speed="7.46" length="9.84" shape="739.92,1997.76 740.50,1996.11 743.44,1994.54 748.20,1994.55"/>
    </edge>
    <edge id=":42720071_17" function="internal">
        <lane id=":42720071_17_0" index="0" disallow="tram rail_urban rail rail_electric rail_fast ship" speed="3.65" length="2.34" shape="741.19,2001.96 742.07,2002.12 743.18,2003.04"/>
    </edge>
    <edge id=":42720071_4" function="internal">
        <lane id=":42720071_4_0" index="0" disallow="tram rail_urban rail rail_electric rail_fast ship" speed="5.78" length="9.16" shape="747.76,1997.72 745.06,1997.71 743.40,1998.60 742.78,2000.37 743.18,2003.04"/>
    </edge>
    <edge id=":42720071_5" function="internal">
        <lane id=":42720071_5_0" index="0" disallow="tram rail_urban rail rail_electric rail_fast ship" speed="13.89" length="18.04" shape="747.76,1997.72 729.90,1995.17"/>
    </edge>
    <edge id=":42720071_6" function="internal">
        <lane id=":42720071_6_0" index="0" disallow="tram rail_urban rail rail_electric rail_fast ship" speed="10.72" length="5.98" shape="747.76,1997.72 743.87,1996.38 742.33,1995.33"/>
    </edge>
    <edge id=":42720071_7" function="internal">
        <lane id=":42720071_7_0" index="0" disallow="tram rail_urban rail rail_electric rail_fast ship" speed="3.65" length="2.34" shape="747.76,1997.72 746.68,1996.76 746.40,1995.91"/>
    </edge>
    <edge id=":42720071_18" function="internal">
        <lane id=":42720071_18_0" index="0" disallow="tram rail_urban rail rail_electric rail_fast ship" speed="10.72" length="11.57" shape="742.33,1995.33 740.03,1993.76 736.85,1990.36 734.92,1986.70"/>
    </edge>
    <edge id=":42720071_19" function="internal">
        <lane id=":42720071_19_0" index="0" disallow="tram rail_urban rail rail_electric rail_fast ship" speed="3.65" length="2.34" shape="746.40,1995.91 746.90,1995.18 748.20,1994.55"/>
    </edge>
    <edge id=":42720071_8" function="internal">
        <lane id=":42720071_8_0" index="0" disallow="tram rail_urban rail rail_electric rail_fast ship" speed="9.72" length="14.30" shape="737.98,1985.77 739.50,1989.20 741.71,1991.80 744.61,1993.59 748.20,1994.55"/>
    </edge>
    <edge id=":42720071_9" function="internal">
        <lane id=":42720071_9_0" index="0" disallow="tram rail_urban rail rail_electric rail_fast ship" speed="22.22" length="18.04" shape="737.98,1985.77 743.18,2003.04"/>
    </edge>
    <edge id=":42720071_10" function="internal">
        <lane id=":42720071_10_0" index="0" disallow="tram rail_urban rail rail_electric rail_fast ship" speed="7.45" length="6.44" shape="737.98,1985.77 738.74,1990.51 738.20,1992.06"/>
    </edge>
    <edge id=":42720071_11" function="internal">
        <lane id=":42720071_11_0" index="0" disallow="tram rail_urban rail rail_electric rail_fast ship" speed="3.65" length="2.34" shape="737.98,1985.77 737.56,1987.15 736.92,1987.76"/>
    </edge>
    <edge id=":42720071_20" function="internal">
        <lane id=":42720071_20_0" index="0" disallow="tram rail_urban rail rail_electric rail_fast ship" speed="7.45" length="9.82" shape="738.20,1992.06 737.65,1993.65 734.70,1995.21 729.90,1995.17"/>
    </edge>
    <edge id=":42720071_21" function="internal">
        <lane id=":42720071_21_0" index="0" disallow="tram rail_urban rail rail_electric rail_fast ship" speed="3.65" length="2.34" shape="736.92,1987.76 736.03,1987.62 734.92,1986.70"/>
    </edge>
    <edge id=":42720071_12" function="internal">
        <lane id=":42720071_12_0" index="0" disallow="tram rail_urban rail rail_electric rail_fast ship" speed="5.76" length="9.17" shape="730.37,1992.00 733.07,1992.02 734.73,1991.15 735.35,1989.37 734.92,1986.70"/>
    </edge>
    <edge id=":42720071_13" function="internal">
        <lane id=":42720071_13_0" index="0" disallow="tram rail_urban rail rail_electric rail_fast ship" speed="13.89" length="18.02" shape="730.37,1992.00 748.20,1994.55"/>
    </edge>
    <edge id=":42720071_14" function="internal">
        <lane id=":42720071_14_0" index="0" disallow="tram rail_urban rail rail_electric rail_fast ship" speed="10.71" length="5.95" shape="730.37,1992.00 734.27,1993.36 735.77,1994.39"/>
    </edge>
    <edge id=":42720071_15" function="internal">
        <lane id=":42720071_15_0" index="0" disallow="tram rail_urban rail rail_electric rail_fast ship" speed="3.65" length="2.34" shape="730.37,1992.00 731.44,1992.96 731.72,1993.81"/>
    </edge>
    <edge id=":42720071_22" function="internal">
        <lane id=":42720071_22_0" index="0" disallow="tram rail_urban rail rail_electric rail_fast ship" speed="10.71" length="11.60" shape="735.77,1994.39 738.11,1996.00 741.28,1999.39 743.18,2003.04"/>
    </edge>
    <edge id=":42720071_23" function="internal">
        <lane id=":42720071_23_0" index="0" disallow="tram rail_urban rail rail_electric rail_fast ship" speed="3.65" length="2.34" shape="731.72,1993.81 731.21,1994.55 729.90,1995.17"/>
    </edge>
    <edge id=":42720075_0" function="internal">
        <lane id=":42720075_0_0" index="0" disallow="tram rail_urban rail rail_electric rail_fast ship" speed="13.89" length="11.11" shape="784.45,2002.89 773.45,2001.32"/>
    </edge>
    <edge id=":42720075_1" function="internal">
        <lane id=":42720075_1_0" index="0" disallow="tram rail_urban rail rail_electric rail_fast ship" speed="7.31" length="4.02" shape="784.45,2002.89 782.11,2001.99 781.17,2000.80"/>
    </edge>
    <edge id=":42720075_2" function="internal">
        <lane id=":42720075_2_0" index="0" disallow="tram rail_urban rail rail_electric rail_fast ship" speed="3.65" length="2.34" shape="784.45,2002.89 783.37,2001.92 783.09,2001.07"/>
    </edge>
    <edge id=":42720075_6" function="internal">
        <lane id=":42720075_6_0" index="0" disallow="tram rail_urban rail rail_electric rail_fast ship" speed="7.31" length="7.66" shape="781.17,2000.80 780.63,2000.11 779.99,1997.25 780.21,1993.41"/>
    </edge>
    <edge id=":42720075_7" function="internal">
        <lane id=":42720075_7_0" index="0" disallow="tram rail_urban rail rail_electric rail_fast ship" speed="3.65" length="2.34" shape="783.09,2001.07 783.61,2000.34 784.91,1999.72"/>
    </edge>
    <edge id=":42720075_3" function="internal">
        <lane id=":42720075_3_0" index="0" disallow="tram rail_urban rail rail_electric rail_fast ship" speed="6.51" length="8.99" shape="773.89,1998.15 776.35,1998.14 778.22,1997.35 779.51,1995.77 780.21,1993.41"/>
    </edge>
    <edge id=":42720075_4" function="internal">
        <lane id=":42720075_4_0" index="0" disallow="tram rail_urban rail rail_electric rail_fast ship" speed="13.89" length="11.13" shape="773.89,1998.15 784.91,1999.72"/>
    </edge>
    <edge id=":42720075_5" function="internal">
        <lane id=":42720075_5_0" index="0" disallow="tram rail_urban rail rail_electric rail_fast ship" speed="3.65" length="2.34" shape="773.89,1998.15 774.97,1999.11 775.26,1999.95"/>
    </edge>
    <edge id=":42720075_8" function="internal">
        <lane id=":42720075_8_0" index="0" disallow="tram rail_urban rail rail_electric rail_fast ship" speed="3.65" length="2.34" shape="775.26,1999.95 774.75,2000.69 773.45,2001.32"/>
    </edge>
    <edge id=":42720079_0" function="internal">
        <lane id=":42720079_0_0" index="0" disallow="tram rail_urban rail rail_electric rail_fast ship" speed="6.48" length="9.04" shape="876.25,2016.35 873.77,2016.31 871.88,2017.07 870.58,2018.64 869.88,2021.02"/>
    </edge>
    <edge id=":42720079_1" function="internal">
        <lane id=":42720079_1_0" index="0" disallow="tram rail_urban rail rail_electric rail_fast ship" speed="13.89" length="11.24" shape="876.25,2016.35 865.15,2014.65"/>
    </edge>
    <edge id=":42720079_2" function="internal">
        <lane id=":42720079_2_0" index="0" disallow="tram rail_urban rail rail_electric rail_fast ship" speed="3.65" length="2.34" shape="876.25,2016.35 875.20,2015.37 874.93,2014.52"/>
    </edge>
    <edge id=":42720079_9" function="internal">
        <lane id=":42720079_9_0" index="0" disallow="tram rail_urban rail rail_electric rail_fast ship" speed="3.65" length="2.34" shape="874.93,2014.52 875.45,2013.79 876.76,2013.20"/>
    </edge>
    <edge id=":42720079_3" function="internal">
        <lane id=":42720079_3_0" index="0" disallow="tram rail_urban rail rail_electric rail_fast ship" speed="6.47" length="9.03" shape="872.21,2006.76 872.12,2009.24 872.85,2011.14 874.40,2012.46 876.76,2013.20"/>
    </edge>
    <edge id=":42720079_4" function="internal">
        <lane id=":42720079_4_0" index="0" disallow="tram rail_urban rail rail_electric rail_fast ship" speed="13.89" length="14.45" shape="872.21,2006.76 869.88,2021.02"/>
    </edge>
    <edge id=":42720079_5" function="internal">
        <lane id=":42720079_5_0" index="0" disallow="tram rail_urban rail rail_electric rail_fast ship" speed="7.44" length="11.82" shape="872.21,2006.76 871.18,2010.51 869.66,2013.07 867.65,2014.45 865.15,2014.65"/>
    </edge>
    <edge id=":42720079_6" function="internal">
        <lane id=":42720079_6_0" index="0" disallow="tram rail_urban rail rail_electric rail_fast ship" speed="13.89" length="11.29" shape="865.61,2011.48 876.76,2013.20"/>
    </edge>
    <edge id=":42720079_7" function="internal">
        <lane id=":42720079_7_0" index="0" disallow="tram rail_urban rail rail_electric rail_fast ship" speed="7.33" length="4.08" shape="865.61,2011.48 867.95,2012.38 868.93,2013.61"/>
    </edge>
    <edge id=":42720079_8" function="internal">
        <lane id=":42720079_8_0" index="0" disallow="tram rail_urban rail rail_electric rail_fast ship" speed="3.65" length="2.34" shape="865.61,2011.48 866.68,2012.44 866.96,2013.29"/>
    </edge>
    <edge id=":42720079_10" function="internal">
        <lane id=":42720079_10_0" index="0" disallow="tram rail_urban rail rail_electric rail_fast ship" speed="7.33" length="7.67" shape="868.93,2013.61 869.45,2014.27 870.09,2017.15 869.88,2021.02"/>
    </edge>
    <edge id=":42720079_11" function="internal">
        <lane id=":42720079_11_0" index="0" disallow="tram rail_urban rail rail_electric rail_fast ship" speed="3.65" length="2.34" shape="866.96,2013.29 866.45,2014.03 865.15,2014.65"/>
    </edge>
    <edge id=":42720083_0" function="internal">
        <lane id=":42720083_0_0" index="0" disallow="tram rail_urban rail rail_electric rail_fast ship" speed="10.73" length="13.30" shape="939.81,2030.44 938.26,2028.53 935.81,2026.94 932.46,2025.69 928.22,2024.77"/>
    </edge>
    <edge id=":42720083_1" function="internal">
        <lane id=":42720083_1_0" index="0" disallow="tram rail_urban rail rail_electric rail_fast ship" speed="6.83" length="7.67" shape="939.81,2030.44 938.42,2027.10 938.15,2024.42 938.68,2023.17"/>
    </edge>
    <edge id=":42720083_8" function="internal">
        <lane id=":42720083_8_0" index="0" disallow="tram rail_urban rail rail_electric rail_fast ship" speed="6.83" length="3.21" shape="938.68,2023.17 939.00,2022.41 940.97,2021.07"/>
    </edge>
    <edge id=":42720083_2" function="internal">
        <lane id=":42720083_2_0" index="0" disallow="tram rail_urban rail rail_electric rail_fast ship" speed="13.89" length="14.14" shape="942.16,2024.04 938.72,2025.05 935.30,2025.40 931.83,2025.25 928.22,2024.77"/>
    </edge>
    <edge id=":42720083_3" function="internal">
        <lane id=":42720083_3_0" index="0" disallow="tram rail_urban rail rail_electric rail_fast ship" speed="3.65" length="4.67" shape="942.16,2024.04 940.75,2023.74 940.08,2023.15 940.15,2022.25 940.97,2021.07"/>
    </edge>
    <edge id=":42720083_4" function="internal">
        <lane id=":42720083_4_0" index="0" disallow="tram rail_urban rail rail_electric rail_fast ship" speed="7.63" length="11.00" shape="931.85,2016.89 933.90,2019.49 936.10,2021.06 938.46,2021.58 940.97,2021.07"/>
    </edge>
    <edge id=":42720083_5" function="internal">
        <lane id=":42720083_5_0" index="0" disallow="tram rail_urban rail rail_electric rail_fast ship" speed="6.34" length="8.24" shape="931.85,2016.89 933.85,2020.92 933.92,2023.57 933.02,2024.19"/>
    </edge>
    <edge id=":42720083_9" function="internal">
        <lane id=":42720083_9_0" index="0" disallow="tram rail_urban rail rail_electric rail_fast ship" speed="6.34" length="5.00" shape="933.02,2024.19 932.04,2024.85 928.22,2024.77"/>
    </edge>
    <edge id=":42720083_6" function="internal">
        <lane id=":42720083_6_0" index="0" disallow="tram rail_urban rail rail_electric rail_fast ship" speed="13.89" length="12.45" shape="928.73,2021.61 932.07,2022.12 934.96,2022.33 937.80,2022.04 940.97,2021.07"/>
    </edge>
    <edge id=":42720083_7" function="internal">
        <lane id=":42720083_7_0" index="0" disallow="tram rail_urban rail rail_electric rail_fast ship" speed="3.65" length="4.67" shape="928.73,2021.61 929.79,2022.59 930.06,2023.44 929.53,2024.17 928.22,2024.77"/>
    </edge>
    <edge id=":42720086_0" function="internal">
        <lane id=":42720086_0_0" index="0" disallow="tram rail_urban rail rail_electric rail_fast ship" speed="6.30" length="9.45" shape="1060.94,1983.09 1060.02,1980.63 1058.53,1979.21 1056.49,1978.82 1053.88,1979.45"/>
    </edge>
    <edge id=":42720086_1" function="internal">
        <lane id=":42720086_1_0" index="0" disallow="tram rail_urban rail rail_electric rail_fast ship" speed="13.89" length="15.18" shape="1060.94,1983.09 1059.94,1979.45 1058.56,1975.90 1056.82,1972.50 1054.76,1969.34"/>
    </edge>
    <edge id=":42720086_2" function="internal">