<?xml version="1.0" encoding="UTF-8"?>

<!-- generated on 2021-11-28 18:26:53 by Eclipse SUMO netedit Version 1.9.2
<configuration xmlns:xsi="http://www.w3.org/2001/XMLSchema-instance" xsi:noNamespaceSchemaLocation="http://sumo.dlr.de/xsd/netconvertConfiguration.xsd">

    <input>
        <sumo-net-file value="C:\Users\Mates\Desktop\SemProjekt\SUMO_python\maps\sumo\San_Francisco.net.xml"/>
    </input>

    <output>
        <output-file value="C:\Users\Mates\Desktop\SemProjekt\SUMO_python\maps\sumo\San_Francisco.net.xml"/>
    </output>

    <processing>
        <geometry.min-radius.fix.railways value="false"/>
        <geometry.max-grade.fix value="false"/>
        <offset.disable-normalization value="true"/>
        <lefthand value="false"/>
    </processing>

    <junctions>
        <no-turnarounds value="true"/>
        <junctions.corner-detail value="5"/>
        <junctions.limit-turn-speed value="5.5"/>
        <rectangular-lane-cut value="false"/>
    </junctions>

    <pedestrian>
        <walkingareas value="false"/>
    </pedestrian>

    <report>
        <aggregate-warnings value="5"/>
    </report>

</configuration>
-->

<net version="1.9" junctionCornerDetail="5" limitTurnSpeed="5.50" xmlns:xsi="http://www.w3.org/2001/XMLSchema-instance" xsi:noNamespaceSchemaLocation="http://sumo.dlr.de/xsd/net_file.xsd">

    <location netOffset="-568133.27,-4148682.09" convBoundary="0.00,0.00,995.11,1041.96" origBoundary="-122.229298,37.482506,-122.218050,37.491867" projParameter="+proj=utm +zone=10 +ellps=WGS84 +datum=WGS84 +units=m +no_defs"/>

    <type id="highway.bridleway" priority="1" numLanes="1" speed="2.78" allow="pedestrian" oneway="1" width="2.00"/>
    <type id="highway.bus_guideway" priority="1" numLanes="1" speed="27.78" allow="bus" oneway="1"/>
    <type id="highway.cycleway" priority="1" numLanes="1" speed="8.33" allow="bicycle" oneway="1" width="1.00"/>
    <type id="highway.footway" priority="1" numLanes="1" speed="2.78" allow="pedestrian" oneway="1" width="2.00"/>
    <type id="highway.ford" priority="1" numLanes="1" speed="2.78" allow="army" oneway="1"/>
    <type id="highway.living_street" priority="2" numLanes="1" speed="2.78" disallow="tram rail_urban rail rail_electric rail_fast ship" oneway="1"/>
    <type id="highway.motorway" priority="14" numLanes="2" speed="39.44" allow="private emergency authority army vip passenger hov taxi bus coach delivery truck trailer motorcycle evehicle custom1 custom2" oneway="1"/>
    <type id="highway.motorway_link" priority="9" numLanes="1" speed="22.22" allow="private emergency authority army vip passenger hov taxi bus coach delivery truck trailer motorcycle evehicle custom1 custom2" oneway="1"/>
    <type id="highway.path" priority="1" numLanes="1" speed="2.78" allow="pedestrian bicycle" oneway="1" width="2.00"/>
    <type id="highway.pedestrian" priority="1" numLanes="1" speed="2.78" allow="pedestrian" oneway="1" width="2.00"/>
    <type id="highway.primary" priority="12" numLanes="2" speed="27.78" disallow="tram rail_urban rail rail_electric rail_fast ship" oneway="1"/>
    <type id="highway.primary_link" priority="7" numLanes="1" speed="22.22" disallow="tram rail_urban rail rail_electric rail_fast ship" oneway="1"/>
    <type id="highway.raceway" priority="15" numLanes="2" speed="83.33" allow="vip" oneway="1"/>
    <type id="highway.residential" priority="3" numLanes="1" speed="13.89" disallow="tram rail_urban rail rail_electric rail_fast ship" oneway="1"/>
    <type id="highway.secondary" priority="11" numLanes="1" speed="27.78" disallow="tram rail_urban rail rail_electric rail_fast ship" oneway="1"/>
    <type id="highway.secondary_link" priority="6" numLanes="1" speed="22.22" disallow="tram rail_urban rail rail_electric rail_fast ship" oneway="1"/>
    <type id="highway.service" priority="1" numLanes="1" speed="5.56" allow="pedestrian delivery bicycle" oneway="1"/>
    <type id="highway.stairs" priority="1" numLanes="1" speed="1.39" allow="pedestrian" oneway="1" width="2.00"/>
    <type id="highway.step" priority="1" numLanes="1" speed="1.39" allow="pedestrian" oneway="1" width="2.00"/>
    <type id="highway.steps" priority="1" numLanes="1" speed="1.39" allow="pedestrian" oneway="1" width="2.00"/>
    <type id="highway.tertiary" priority="10" numLanes="1" speed="22.22" disallow="tram rail_urban rail rail_electric rail_fast ship" oneway="1"/>
    <type id="highway.tertiary_link" priority="5" numLanes="1" speed="22.22" disallow="tram rail_urban rail rail_electric rail_fast ship" oneway="1"/>
    <type id="highway.track" priority="1" numLanes="1" speed="5.56" allow="pedestrian motorcycle moped bicycle" oneway="1"/>
    <type id="highway.trunk" priority="13" numLanes="2" speed="27.78" disallow="pedestrian bicycle tram rail_urban rail rail_electric rail_fast ship" oneway="1"/>
    <type id="highway.trunk_link" priority="8" numLanes="1" speed="22.22" disallow="pedestrian bicycle tram rail_urban rail rail_electric rail_fast ship" oneway="1"/>
    <type id="highway.unclassified" priority="4" numLanes="1" speed="13.89" disallow="tram rail_urban rail rail_electric rail_fast ship" oneway="1"/>
    <type id="highway.unsurfaced" priority="1" numLanes="1" speed="8.33" disallow="tram rail_urban rail rail_electric rail_fast ship" oneway="1"/>
    <type id="railway.highspeed" priority="21" numLanes="1" speed="69.44" allow="rail_fast" oneway="1"/>
    <type id="railway.light_rail" priority="19" numLanes="1" speed="27.78" allow="rail_urban" oneway="1"/>
    <type id="railway.preserved" priority="16" numLanes="1" speed="27.78" allow="rail" oneway="1"/>
    <type id="railway.rail" priority="20" numLanes="1" speed="44.44" allow="rail" oneway="1"/>
    <type id="railway.subway" priority="18" numLanes="1" speed="27.78" allow="rail_urban" oneway="1"/>
    <type id="railway.tram" priority="17" numLanes="1" speed="13.89" allow="tram" oneway="1"/>

    <edge id=":1110862106_0" function="internal">
        <lane id=":1110862106_0_0" index="0" disallow="tram rail_urban rail rail_electric rail_fast ship" speed="27.78" length="3.37" shape="201.78,847.23 198.52,847.88"/>
        <lane id=":1110862106_0_1" index="1" disallow="tram rail_urban rail rail_electric rail_fast ship" speed="27.78" length="3.37" shape="201.20,844.09 197.84,844.75"/>
    </edge>
    <edge id=":1110862106_2" function="internal">
        <lane id=":1110862106_2_0" index="0" disallow="tram rail_urban rail rail_electric rail_fast ship" speed="25.00" length="3.22" shape="202.33,850.26 199.20,851.00"/>
    </edge>
    <edge id=":2201133746_0" function="internal">
        <lane id=":2201133746_0_0" index="0" disallow="tram rail_urban rail rail_electric rail_fast ship" speed="22.22" length="3.20" shape="246.07,865.33 245.74,866.22 245.53,866.84 245.35,867.46 245.12,868.38"/>
    </edge>
    <edge id=":2201133746_1" function="internal">
        <lane id=":2201133746_1_0" index="0" disallow="tram rail_urban rail rail_electric rail_fast ship" speed="22.22" length="3.19" shape="242.62,864.47 242.49,865.40 242.39,866.04 242.25,866.67 242.01,867.59"/>
    </edge>
    <edge id=":2201133747_0" function="internal">
        <lane id=":2201133747_0_0" index="0" disallow="tram rail_urban rail rail_electric rail_fast ship" speed="9.05" length="3.82" shape="248.59,798.40 248.84,799.50 249.11,800.23 249.55,800.88 250.29,801.73"/>
    </edge>
    <edge id=":2201133747_1" function="internal">
        <lane id=":2201133747_1_0" index="0" disallow="tram rail_urban rail rail_electric rail_fast ship" speed="22.22" length="3.56" shape="245.46,799.06 245.67,800.09 245.79,800.81 245.84,801.53 245.86,802.59"/>
    </edge>
    <edge id=":257140103_0" function="internal">
        <lane id=":257140103_0_0" index="0" disallow="tram rail_urban rail rail_electric rail_fast ship" speed="3.65" length="4.67" shape="363.83,266.05 364.68,264.88 365.49,264.51 366.27,264.94 367.03,266.17"/>
    </edge>
    <edge id=":271286082_0" function="internal">
        <lane id=":271286082_0_0" index="0" disallow="tram rail_urban rail rail_electric rail_fast ship" speed="3.65" length="4.67" shape="746.06,1041.10 746.03,1042.54 745.57,1043.31 744.68,1043.40 743.36,1042.82"/>
    </edge>
    <edge id=":272950284_0" function="internal">
        <lane id=":272950284_0_0" index="0" disallow="tram rail_urban rail rail_electric rail_fast ship" speed="22.22" length="3.70" shape="226.47,869.26 226.81,868.22 226.98,867.49 227.06,866.74 227.11,865.64"/>
    </edge>
    <edge id=":272950284_1" function="internal">
        <lane id=":272950284_1_0" index="0" disallow="tram rail_urban rail rail_electric rail_fast ship" speed="22.22" length="4.47" shape="229.50,870.30 229.91,869.04 230.12,868.15 230.26,867.25 230.44,865.94"/>
    </edge>
    <edge id=":305591739_0" function="internal">
        <lane id=":305591739_0_0" index="0" disallow="tram rail_urban rail rail_electric rail_fast ship" speed="3.65" length="4.67" shape="329.95,0.77 330.07,-0.66 330.58,-1.40 331.47,-1.44 332.75,-0.77"/>
    </edge>
    <edge id=":3189465264_0" function="internal">
        <lane id=":3189465264_0_0" index="0" disallow="tram rail_urban rail rail_electric rail_fast ship" speed="3.65" length="4.67" shape="433.82,479.34 435.26,479.48 435.99,479.99 436.02,480.89 435.34,482.16"/>
    </edge>
    <edge id=":3994971205_0" function="internal">
        <lane id=":3994971205_0_0" index="0" disallow="tram rail_urban rail rail_electric rail_fast ship" speed="27.78" length="8.21" shape="792.18,759.19 789.85,759.78 788.36,760.56 786.86,761.35 784.54,761.96"/>
        <lane id=":3994971205_0_1" index="1" disallow="tram rail_urban rail rail_electric rail_fast ship" speed="27.78" length="8.21" shape="791.71,756.02 789.38,756.61 787.88,757.39 786.37,758.18 784.04,758.80"/>
        <lane id=":3994971205_0_2" index="2" disallow="tram rail_urban rail rail_electric rail_fast ship" speed="27.78" length="8.21" shape="791.71,756.02 789.30,756.12 787.63,755.81 785.96,755.52 783.54,755.64"/>
    </edge>
    <edge id=":3994971206_0" function="internal">
        <lane id=":3994971206_0_0" index="0" disallow="tram rail_urban rail rail_electric rail_fast ship" speed="27.78" length="6.89" shape="758.08,766.14 756.07,766.18 754.68,765.80 753.29,765.40 751.27,765.41"/>
        <lane id=":3994971206_0_1" index="1" disallow="tram rail_urban rail rail_electric rail_fast ship" speed="27.78" length="6.89" shape="757.58,762.98 755.59,763.02 754.21,762.63 752.84,762.23 750.84,762.24"/>
    </edge>
    <edge id=":3994971206_2" function="internal">
        <lane id=":3994971206_2_0" index="0" disallow="tram rail_urban rail rail_electric rail_fast ship" speed="9.99" length="5.99" shape="757.09,759.82 755.36,759.96 754.17,759.73 753.03,759.18 751.45,758.36"/>
    </edge>
    <edge id=":3994983498_0" function="internal">
        <lane id=":3994983498_0_0" index="0" disallow="tram rail_urban rail rail_electric rail_fast ship" speed="3.65" length="4.67" shape="934.20,498.17 935.35,499.04 935.71,499.86 935.27,500.63 934.02,501.37"/>
    </edge>
    <edge id=":4178871191_0" function="internal">
        <lane id=":4178871191_0_0" index="0" disallow="tram rail_urban rail rail_electric rail_fast ship" speed="27.78" length="8.19" shape="308.38,830.11 306.06,830.70 304.57,831.47 303.08,832.26 300.77,832.88"/>
        <lane id=":4178871191_0_1" index="1" disallow="tram rail_urban rail rail_electric rail_fast ship" speed="27.78" length="8.19" shape="308.38,830.11 305.98,830.20 304.31,829.89 302.65,829.59 300.26,829.72"/>
        <lane id=":4178871191_0_2" index="2" disallow="tram rail_urban rail rail_electric rail_fast ship" speed="27.78" length="8.19" shape="307.93,826.94 305.51,827.04 303.83,826.73 302.16,826.43 299.75,826.56"/>
    </edge>
    <edge id=":4178871192_0" function="internal">
        <lane id=":4178871192_0_0" index="0" disallow="tram rail_urban rail rail_electric rail_fast ship" speed="27.78" length="9.11" shape="184.28,831.66 186.63,830.38 187.69,828.47 188.75,826.55 191.10,825.28"/>
        <lane id=":4178871192_0_1" index="1" disallow="tram rail_urban rail rail_electric rail_fast ship" speed="27.78" length="9.11" shape="184.28,831.66 186.57,830.91 188.03,830.03 189.48,829.16 191.77,828.41"/>
        <lane id=":4178871192_0_2" index="2" disallow="tram rail_urban rail rail_electric rail_fast ship" speed="27.78" length="9.11" shape="184.28,831.66 186.68,831.40 188.36,831.60 190.04,831.80 192.44,831.54"/>
        <lane id=":4178871192_0_3" index="3" disallow="tram rail_urban rail rail_electric rail_fast ship" speed="27.78" length="9.11" shape="184.28,831.66 186.95,831.85 188.70,833.16 190.45,834.47 193.11,834.67"/>
        <lane id=":4178871192_0_4" index="4" disallow="tram rail_urban rail rail_electric rail_fast ship" speed="27.78" length="9.11" shape="184.96,834.79 187.62,834.98 189.37,836.29 191.12,837.60 193.78,837.80"/>
    </edge>
    <edge id=":4178871193_0" function="internal">
        <lane id=":4178871193_0_0" index="0" disallow="tram rail_urban rail rail_electric rail_fast ship" speed="27.78" length="8.16" shape="145.85,842.39 148.10,841.53 149.51,840.59 150.93,839.67 153.20,838.86"/>
        <lane id=":4178871193_0_1" index="1" disallow="tram rail_urban rail rail_electric rail_fast ship" speed="27.78" length="8.16" shape="146.68,845.48 148.91,844.63 150.31,843.69 151.71,842.78 153.95,841.97"/>
    </edge>
    <edge id=":4178871194_0" function="internal">
        <lane id=":4178871194_0_0" index="0" disallow="tram rail_urban rail rail_electric rail_fast ship" speed="27.78" length="8.19" shape="132.88,866.58 125.29,868.78"/>
        <lane id=":4178871194_0_1" index="1" disallow="tram rail_urban rail rail_electric rail_fast ship" speed="27.78" length="8.19" shape="132.02,863.50 124.37,865.71"/>
        <lane id=":4178871194_0_2" index="2" disallow="tram rail_urban rail rail_electric rail_fast ship" speed="27.78" length="8.19" shape="131.17,860.42 123.45,862.65"/>
        <lane id=":4178871194_0_3" index="3" disallow="tram rail_urban rail rail_electric rail_fast ship" speed="27.78" length="8.19" shape="131.17,860.42 128.64,860.60 126.84,859.97 125.05,859.35 122.53,859.58"/>
    </edge>
    <edge id=":4178921638_0" function="internal">
        <lane id=":4178921638_0_0" index="0" disallow="tram rail_urban rail rail_electric rail_fast ship" speed="3.65" length="4.67" shape="265.12,429.91 266.00,428.77 266.83,428.42 267.60,428.88 268.32,430.13"/>
    </edge>
    <edge id=":4178921651_0" function="internal">
        <lane id=":4178921651_0_0" index="0" disallow="tram rail_urban rail rail_electric rail_fast ship" speed="3.65" length="4.67" shape="34.79,558.15 33.63,557.29 33.27,556.47 33.71,555.69 34.95,554.95"/>
    </edge>
    <edge id=":4178921655_0" function="internal">
        <lane id=":4178921655_0_0" index="0" disallow="tram rail_urban rail rail_electric rail_fast ship" speed="22.22" length="8.72" shape="231.41,574.13 229.03,573.41 227.60,572.19 226.18,570.98 223.79,570.31"/>
    </edge>
    <edge id=":4178921655_1" function="internal">
        <lane id=":4178921655_1_0" index="0" disallow="tram rail_urban rail rail_electric rail_fast ship" speed="22.22" length="9.24" shape="224.02,567.11 226.74,566.30 228.24,564.21 229.77,562.13 232.56,561.38"/>
        <lane id=":4178921655_1_1" index="1" disallow="tram rail_urban rail rail_electric rail_fast ship" speed="22.22" length="9.24" shape="224.02,567.11 226.52,566.79 228.15,565.81 229.78,564.84 232.28,564.57"/>
        <lane id=":4178921655_1_2" index="2" disallow="tram rail_urban rail rail_electric rail_fast ship" speed="22.22" length="9.24" shape="224.02,567.11 231.99,567.76"/>
    </edge>
    <edge id=":4184051517_0" function="internal">
        <lane id=":4184051517_0_0" index="0" disallow="tram rail_urban rail rail_electric rail_fast ship" speed="5.56" length="9.41" shape="746.89,755.57 745.12,753.27 744.87,751.48 746.16,750.22 748.97,749.48"/>
    </edge>
    <edge id=":4184051517_1" function="internal">
        <lane id=":4184051517_1_0" index="0" disallow="tram rail_urban rail rail_electric rail_fast ship" speed="27.78" length="12.00" shape="736.65,747.91 748.54,746.31"/>
        <lane id=":4184051517_1_1" index="1" disallow="tram rail_urban rail rail_electric rail_fast ship" speed="27.78" length="12.00" shape="737.07,751.08 748.97,749.48"/>
    </edge>
    <edge id=":449081518_0" function="internal">
        <lane id=":449081518_0_0" index="0" disallow="tram rail_urban rail rail_electric rail_fast ship" speed="25.00" length="3.91" shape="286.90,835.11 285.75,835.27 284.96,835.34 284.16,835.35 283.00,835.35"/>
    </edge>
    <edge id=":449081518_1" function="internal">
        <lane id=":449081518_1_0" index="0" disallow="tram rail_urban rail rail_electric rail_fast ship" speed="27.78" length="3.89" shape="286.39,831.95 285.30,832.38 284.70,833.03 284.09,833.68 283.00,834.09"/>
        <lane id=":449081518_1_1" index="1" disallow="tram rail_urban rail rail_electric rail_fast ship" speed="27.78" length="3.89" shape="285.88,828.79 284.94,829.19 284.44,829.83 283.93,830.46 282.99,830.86"/>
    </edge>
    <edge id=":4767352325_0" function="internal">
        <lane id=":4767352325_0_0" index="0" disallow="tram rail_urban rail rail_electric rail_fast ship" speed="8.92" length="10.35" shape="339.05,701.12 337.71,699.16 335.84,697.67 333.44,696.66 330.51,696.11"/>
    </edge>
    <edge id=":4767352325_1" function="internal">
        <lane id=":4767352325_1_0" index="0" disallow="tram rail_urban rail rail_electric rail_fast ship" speed="13.89" length="13.65" shape="339.05,701.12 337.73,697.85 336.98,694.66 336.71,691.38 336.81,687.83"/>
    </edge>
    <edge id=":4767352325_2" function="internal">
        <lane id=":4767352325_2_0" index="0" disallow="tram rail_urban rail rail_electric rail_fast ship" speed="3.65" length="2.34" shape="339.05,701.12 339.24,699.69 339.78,698.98"/>
    </edge>
    <edge id=":4767352325_9" function="internal">
        <lane id=":4767352325_9_0" index="0" disallow="tram rail_urban rail rail_electric rail_fast ship" speed="3.65" length="2.34" shape="339.78,698.98 340.68,698.99 341.92,699.72"/>
    </edge>
    <edge id=":4767352325_3" function="internal">
        <lane id=":4767352325_3_0" index="0" disallow="tram rail_urban rail rail_electric rail_fast ship" speed="13.89" length="12.03" shape="340.00,688.03 339.86,691.33 340.02,694.06 340.65,696.70 341.92,699.72"/>
    </edge>
    <edge id=":4767352325_4" function="internal">
        <lane id=":4767352325_4_0" index="0" disallow="tram rail_urban rail rail_electric rail_fast ship" speed="7.94" length="5.24" shape="340.00,688.03 339.19,691.89 338.45,692.95"/>
    </edge>
    <edge id=":4767352325_5" function="internal">
        <lane id=":4767352325_5_0" index="0" disallow="tram rail_urban rail rail_electric rail_fast ship" speed="3.65" length="2.34" shape="340.00,688.03 339.13,689.18 338.30,689.52"/>
    </edge>
    <edge id=":4767352325_10" function="internal">
        <lane id=":4767352325_10_0" index="0" disallow="tram rail_urban rail rail_electric rail_fast ship" speed="7.94" length="9.08" shape="338.45,692.95 337.34,694.52 334.45,695.93 330.51,696.11"/>
    </edge>
    <edge id=":4767352325_11" function="internal">
        <lane id=":4767352325_11_0" index="0" disallow="tram rail_urban rail rail_electric rail_fast ship" speed="3.65" length="2.34" shape="338.30,689.52 337.53,689.08 336.81,687.83"/>
    </edge>
    <edge id=":4767352325_6" function="internal">
        <lane id=":4767352325_6_0" index="0" disallow="tram rail_urban rail rail_electric rail_fast ship" speed="6.44" length="9.03" shape="330.82,692.93 333.30,692.81 335.13,691.92 336.30,690.26 336.81,687.83"/>
    </edge>
    <edge id=":4767352325_7" function="internal">
        <lane id=":4767352325_7_0" index="0" disallow="tram rail_urban rail rail_electric rail_fast ship" speed="10.16" length="13.61" shape="330.82,692.93 334.58,693.65 337.68,695.02 340.13,697.04 341.92,699.72"/>
    </edge>
    <edge id=":4767352325_8" function="internal">
        <lane id=":4767352325_8_0" index="0" disallow="tram rail_urban rail rail_electric rail_fast ship" speed="3.65" length="4.67" shape="330.82,692.93 331.94,693.84 332.26,694.67 331.78,695.43 330.51,696.11"/>
    </edge>
    <edge id=":4772306623_0" function="internal">
        <lane id=":4772306623_0_0" index="0" disallow="tram rail_urban rail rail_electric rail_fast ship" speed="3.65" length="4.67" shape="995.23,593.02 996.36,593.91 996.71,594.74 996.25,595.50 994.99,596.22"/>
    </edge>
    <edge id=":4772983521_0" function="internal">
        <lane id=":4772983521_0_0" index="0" disallow="tram rail_urban rail rail_electric rail_fast ship" speed="6.86" length="9.48" shape="468.35,645.72 467.63,643.37 466.25,641.75 464.22,640.86 461.55,640.68"/>
    </edge>
    <edge id=":4772983521_1" function="internal">
        <lane id=":4772983521_1_0" index="0" disallow="tram rail_urban rail rail_electric rail_fast ship" speed="13.89" length="14.42" shape="468.35,645.72 466.24,631.45"/>
    </edge>
    <edge id=":4772983521_2" function="internal">
        <lane id=":4772983521_2_0" index="0" disallow="tram rail_urban rail rail_electric rail_fast ship" speed="3.65" length="2.34" shape="468.35,645.72 468.97,644.41 469.70,643.90"/>
    </edge>
    <edge id=":4772983521_9" function="internal">
        <lane id=":4772983521_9_0" index="0" disallow="tram rail_urban rail rail_electric rail_fast ship" speed="3.65" length="2.34" shape="469.70,643.90 470.55,644.18 471.52,645.25"/>
    </edge>
    <edge id=":4772983521_3" function="internal">
        <lane id=":4772983521_3_0" index="0" disallow="tram rail_urban rail rail_electric rail_fast ship" speed="13.89" length="14.43" shape="469.40,630.98 471.52,645.25"/>
    </edge>
    <edge id=":4772983521_4" function="internal">
        <lane id=":4772983521_4_0" index="0" disallow="tram rail_urban rail rail_electric rail_fast ship" speed="7.85" length="5.96" shape="469.40,630.98 469.42,635.01 468.64,636.77"/>
    </edge>
    <edge id=":4772983521_5" function="internal">
        <lane id=":4772983521_5_0" index="0" disallow="tram rail_urban rail rail_electric rail_fast ship" speed="3.65" length="2.34" shape="469.40,630.98 468.79,632.28 468.05,632.80"/>
    </edge>
    <edge id=":4772983521_10" function="internal">
        <lane id=":4772983521_10_0" index="0" disallow="tram rail_urban rail rail_electric rail_fast ship" speed="7.85" length="8.57" shape="468.64,636.77 468.12,637.97 465.49,639.86 461.55,640.68"/>
    </edge>
    <edge id=":4772983521_11" function="internal">
        <lane id=":4772983521_11_0" index="0" disallow="tram rail_urban rail rail_electric rail_fast ship" speed="3.65" length="2.34" shape="468.05,632.80 467.20,632.52 466.24,631.45"/>
    </edge>
    <edge id=":4772983521_6" function="internal">
        <lane id=":4772983521_6_0" index="0" disallow="tram rail_urban rail rail_electric rail_fast ship" speed="6.33" length="9.04" shape="461.35,637.49 463.80,636.98 465.44,635.80 466.25,633.96 466.24,631.45"/>
    </edge>
    <edge id=":4772983521_7" function="internal">
        <lane id=":4772983521_7_0" index="0" disallow="tram rail_urban rail rail_electric rail_fast ship" speed="8.29" length="14.33" shape="461.35,637.49 465.34,637.76 468.36,639.15 470.42,641.65 471.52,645.25"/>
    </edge>
    <edge id=":4772983521_8" function="internal">
        <lane id=":4772983521_8_0" index="0" disallow="tram rail_urban rail rail_electric rail_fast ship" speed="3.65" length="4.67" shape="461.35,637.49 462.60,638.21 463.04,638.98 462.69,639.81 461.55,640.68"/>
    </edge>
    <edge id=":4772983522_0" function="internal">
        <lane id=":4772983522_0_0" index="0" disallow="tram rail_urban rail rail_electric rail_fast ship" speed="3.65" length="4.67" shape="425.10,642.94 423.85,642.21 423.40,641.44 423.75,640.62 424.90,639.74"/>
    </edge>
    <edge id=":4774350309_0" function="internal">
        <lane id=":4774350309_0_0" index="0" disallow="tram rail_urban rail rail_electric rail_fast ship" speed="27.78" length="9.72" shape="201.81,832.97 204.20,831.77 205.31,829.89 206.43,828.00 208.81,826.80"/>
        <lane id=":4774350309_0_1" index="1" disallow="tram rail_urban rail rail_electric rail_fast ship" speed="27.78" length="9.72" shape="202.39,836.12 204.78,834.92 205.89,833.03 207.01,831.15 209.39,829.95"/>
    </edge>
    <edge id=":51864641-AddedOnRampNode_0" function="internal">
        <lane id=":51864641-AddedOnRampNode_0_0" index="0" disallow="tram rail_urban rail rail_electric rail_fast ship" speed="27.78" length="8.00" shape="378.35,801.27 386.27,800.09"/>
        <lane id=":51864641-AddedOnRampNode_0_1" index="1" disallow="tram rail_urban rail rail_electric rail_fast ship" speed="27.78" length="8.00" shape="378.82,804.43 386.73,803.26"/>
    </edge>
    <edge id=":5404456222_0" function="internal">
        <lane id=":5404456222_0_0" index="0" disallow="tram rail_urban rail rail_electric rail_fast ship" speed="3.65" length="4.67" shape="477.01,682.34 476.40,683.64 475.66,684.15 474.81,683.87 473.85,682.80"/>
    </edge>
    <edge id=":65391035_0" function="internal">
        <lane id=":65391035_0_0" index="0" disallow="tram rail_urban rail rail_electric rail_fast ship" speed="3.65" length="4.67" shape="646.63,239.62 646.77,238.19 647.28,237.45 648.17,237.42 649.45,238.10"/>
    </edge>
    <edge id=":65409272_0" function="internal">
        <lane id=":65409272_0_0" index="0" disallow="tram rail_urban rail rail_electric rail_fast ship" speed="7.51" length="12.02" shape="728.86,489.33 726.29,489.78 724.36,491.36 723.06,494.08 722.40,497.93"/>
    </edge>
    <edge id=":65409272_1" function="internal">
        <lane id=":65409272_1_0" index="0" disallow="tram rail_urban rail rail_electric rail_fast ship" speed="11.18" length="14.59" shape="728.86,489.33 714.29,488.49"/>
    </edge>
    <edge id=":65409272_2" function="internal">
        <lane id=":65409272_2_0" index="0" disallow="tram rail_urban rail rail_electric rail_fast ship" speed="8.56" length="7.80" shape="728.86,489.33 724.99,488.42 722.36,486.05 722.26,485.77"/>
    </edge>
    <edge id=":65409272_3" function="internal">
        <lane id=":65409272_3_0" index="0" disallow="tram rail_urban rail rail_electric rail_fast ship" speed="3.65" length="2.57" shape="728.86,489.33 727.69,488.48 727.32,487.67 727.44,487.46"/>
    </edge>
    <edge id=":65409272_16" function="internal">
        <lane id=":65409272_16_0" index="0" disallow="tram rail_urban rail rail_electric rail_fast ship" speed="8.56" length="9.05" shape="722.26,485.77 720.98,482.23 720.83,476.95"/>
    </edge>
    <edge id=":65409272_17" function="internal">
        <lane id=":65409272_17_0" index="0" disallow="tram rail_urban rail rail_electric rail_fast ship" speed="3.65" length="2.10" shape="727.44,487.46 727.76,486.89 728.99,486.14"/>
    </edge>
    <edge id=":65409272_4" function="internal">
        <lane id=":65409272_4_0" index="0" disallow="tram rail_urban rail rail_electric rail_fast ship" speed="7.20" length="11.59" shape="724.02,477.20 724.07,481.02 724.92,483.78 726.56,485.49 728.99,486.14"/>
    </edge>
    <edge id=":65409272_5" function="internal">
        <lane id=":65409272_5_0" index="0" disallow="tram rail_urban rail rail_electric rail_fast ship" speed="13.89" length="20.80" shape="724.02,477.20 722.40,497.93"/>
    </edge>
    <edge id=":65409272_6" function="internal">
        <lane id=":65409272_6_0" index="0" disallow="tram rail_urban rail rail_electric rail_fast ship" speed="8.69" length="16.86" shape="724.02,477.20 723.06,482.38 721.12,485.99 718.19,488.03 714.29,488.49"/>
    </edge>
    <edge id=":65409272_7" function="internal">
        <lane id=":65409272_7_0" index="0" disallow="tram rail_urban rail rail_electric rail_fast ship" speed="3.65" length="4.67" shape="724.02,477.20 723.13,478.33 722.30,478.67 721.53,478.21 720.83,476.95"/>
    </edge>
    <edge id=":65409272_8" function="internal">
        <lane id=":65409272_8_0" index="0" disallow="tram rail_urban rail rail_electric rail_fast ship" speed="6.53" length="9.07" shape="714.76,482.11 717.25,481.94 719.09,481.03 720.28,479.36 720.83,476.95"/>
    </edge>
    <edge id=":65409272_9" function="internal">
        <lane id=":65409272_9_0" index="0" disallow="tram rail_urban rail rail_electric rail_fast ship" speed="11.18" length="14.86" shape="714.76,482.11 719.39,482.94 722.77,484.25 725.70,485.50 728.99,486.14"/>
    </edge>
    <edge id=":65409272_10" function="internal">
        <lane id=":65409272_10_0" index="0" disallow="tram rail_urban rail rail_electric rail_fast ship" speed="8.67" length="5.15" shape="714.53,485.30 718.32,486.33 719.20,487.17"/>
    </edge>
    <edge id=":65409272_11" function="internal">
        <lane id=":65409272_11_0" index="0" disallow="tram rail_urban rail rail_electric rail_fast ship" speed="3.65" length="2.34" shape="714.53,485.30 715.66,486.19 716.00,487.01"/>
    </edge>
    <edge id=":65409272_18" function="internal">
        <lane id=":65409272_18_0" index="0" disallow="tram rail_urban rail rail_electric rail_fast ship" speed="8.67" length="11.72" shape="719.20,487.17 720.90,488.78 722.26,492.65 722.40,497.93"/>
    </edge>
    <edge id=":65409272_19" function="internal">
        <lane id=":65409272_19_0" index="0" disallow="tram rail_urban rail rail_electric rail_fast ship" speed="3.65" length="2.34" shape="716.00,487.01 715.55,487.78 714.29,488.49"/>
    </edge>
    <edge id=":65409272_12" function="internal">