<?xml version="1.0" encoding="UTF-8"?>

<!-- generated on 2021-12-24 12:01:54 by Eclipse SUMO netedit Version 1.9.2
<configuration xmlns:xsi="http://www.w3.org/2001/XMLSchema-instance" xsi:noNamespaceSchemaLocation="http://sumo.dlr.de/xsd/netconvertConfiguration.xsd">

    <input>
        <sumo-net-file value="C:\Users\Mates\Desktop\SemProjekt\SUMO_python\maps\sumo\Sydney.net.xml"/>
    </input>

    <output>
        <output-file value="C:\Users\Mates\Desktop\SemProjekt\SUMO_python\maps\sumo\Sydney.net.xml"/>
    </output>

    <processing>
        <geometry.min-radius.fix.railways value="false"/>
        <geometry.max-grade.fix value="false"/>
        <offset.disable-normalization value="true"/>
        <lefthand value="false"/>
    </processing>

    <junctions>
        <no-turnarounds value="true"/>
        <junctions.corner-detail value="5"/>
        <junctions.limit-turn-speed value="5.5"/>
        <rectangular-lane-cut value="false"/>
    </junctions>

    <pedestrian>
        <walkingareas value="false"/>
    </pedestrian>

    <report>
        <aggregate-warnings value="5"/>
    </report>

</configuration>
-->

<net version="1.9" junctionCornerDetail="5" limitTurnSpeed="5.50" xmlns:xsi="http://www.w3.org/2001/XMLSchema-instance" xsi:noNamespaceSchemaLocation="http://sumo.dlr.de/xsd/net_file.xsd">

    <location netOffset="-336586.08,3754670.31" convBoundary="0.00,0.00,3121.68,2323.71" origBoundary="151.232525,-33.920080,151.266296,-33.899237" projParameter="+proj=utm +zone=56 +ellps=WGS84 +datum=WGS84 +units=m +no_defs"/>

    <type id="highway.bridleway" priority="1" numLanes="1" speed="2.78" allow="pedestrian" oneway="1" width="2.00"/>
    <type id="highway.bus_guideway" priority="1" numLanes="1" speed="27.78" allow="bus" oneway="1"/>
    <type id="highway.cycleway" priority="1" numLanes="1" speed="8.33" allow="bicycle" oneway="1" width="1.00"/>
    <type id="highway.footway" priority="1" numLanes="1" speed="2.78" allow="pedestrian" oneway="1" width="2.00"/>
    <type id="highway.ford" priority="1" numLanes="1" speed="2.78" allow="army" oneway="1"/>
    <type id="highway.living_street" priority="2" numLanes="1" speed="2.78" disallow="tram rail_urban rail rail_electric rail_fast ship" oneway="1"/>
    <type id="highway.motorway" priority="14" numLanes="2" speed="39.44" allow="private emergency authority army vip passenger hov taxi bus coach delivery truck trailer motorcycle evehicle custom1 custom2" oneway="1"/>
    <type id="highway.motorway_link" priority="9" numLanes="1" speed="22.22" allow="private emergency authority army vip passenger hov taxi bus coach delivery truck trailer motorcycle evehicle custom1 custom2" oneway="1"/>
    <type id="highway.path" priority="1" numLanes="1" speed="2.78" allow="pedestrian bicycle" oneway="1" width="2.00"/>
    <type id="highway.pedestrian" priority="1" numLanes="1" speed="2.78" allow="pedestrian" oneway="1" width="2.00"/>
    <type id="highway.primary" priority="12" numLanes="2" speed="27.78" disallow="tram rail_urban rail rail_electric rail_fast ship" oneway="1"/>
    <type id="highway.primary_link" priority="7" numLanes="1" speed="22.22" disallow="tram rail_urban rail rail_electric rail_fast ship" oneway="1"/>
    <type id="highway.raceway" priority="15" numLanes="2" speed="83.33" allow="vip" oneway="1"/>
    <type id="highway.residential" priority="3" numLanes="1" speed="13.89" disallow="tram rail_urban rail rail_electric rail_fast ship" oneway="1"/>
    <type id="highway.secondary" priority="11" numLanes="1" speed="27.78" disallow="tram rail_urban rail rail_electric rail_fast ship" oneway="1"/>
    <type id="highway.secondary_link" priority="6" numLanes="1" speed="22.22" disallow="tram rail_urban rail rail_electric rail_fast ship" oneway="1"/>
    <type id="highway.service" priority="1" numLanes="1" speed="5.56" allow="pedestrian delivery bicycle" oneway="1"/>
    <type id="highway.stairs" priority="1" numLanes="1" speed="1.39" allow="pedestrian" oneway="1" width="2.00"/>
    <type id="highway.step" priority="1" numLanes="1" speed="1.39" allow="pedestrian" oneway="1" width="2.00"/>
    <type id="highway.steps" priority="1" numLanes="1" speed="1.39" allow="pedestrian" oneway="1" width="2.00"/>
    <type id="highway.tertiary" priority="10" numLanes="1" speed="22.22" disallow="tram rail_urban rail rail_electric rail_fast ship" oneway="1"/>
    <type id="highway.tertiary_link" priority="5" numLanes="1" speed="22.22" disallow="tram rail_urban rail rail_electric rail_fast ship" oneway="1"/>
    <type id="highway.track" priority="1" numLanes="1" speed="5.56" allow="pedestrian motorcycle moped bicycle" oneway="1"/>
    <type id="highway.trunk" priority="13" numLanes="2" speed="27.78" disallow="pedestrian bicycle tram rail_urban rail rail_electric rail_fast ship" oneway="1"/>
    <type id="highway.trunk_link" priority="8" numLanes="1" speed="22.22" disallow="pedestrian bicycle tram rail_urban rail rail_electric rail_fast ship" oneway="1"/>
    <type id="highway.unclassified" priority="4" numLanes="1" speed="13.89" disallow="tram rail_urban rail rail_electric rail_fast ship" oneway="1"/>
    <type id="highway.unsurfaced" priority="1" numLanes="1" speed="8.33" disallow="tram rail_urban rail rail_electric rail_fast ship" oneway="1"/>
    <type id="railway.highspeed" priority="21" numLanes="1" speed="69.44" allow="rail_fast" oneway="1"/>
    <type id="railway.light_rail" priority="19" numLanes="1" speed="27.78" allow="rail_urban" oneway="1"/>
    <type id="railway.preserved" priority="16" numLanes="1" speed="27.78" allow="rail" oneway="1"/>
    <type id="railway.rail" priority="20" numLanes="1" speed="44.44" allow="rail" oneway="1"/>
    <type id="railway.subway" priority="18" numLanes="1" speed="27.78" allow="rail_urban" oneway="1"/>
    <type id="railway.tram" priority="17" numLanes="1" speed="13.89" allow="tram" oneway="1"/>

    <edge id=":121749855_0" function="internal">
        <lane id=":121749855_0_0" index="0" disallow="tram rail_urban rail rail_electric rail_fast ship" speed="3.65" length="4.67" shape="1458.18,1146.19 1458.74,1144.86 1459.45,1144.32 1460.31,1144.56 1461.32,1145.59"/>
    </edge>
    <edge id=":121759252_0" function="internal">
        <lane id=":121759252_0_0" index="0" disallow="tram rail_urban rail rail_electric rail_fast ship" speed="8.40" length="11.28" shape="1584.66,1029.52 1581.32,1030.44 1578.79,1031.81 1577.09,1033.63 1576.20,1035.91"/>
    </edge>
    <edge id=":121759252_1" function="internal">
        <lane id=":121759252_1_0" index="0" disallow="tram rail_urban rail rail_electric rail_fast ship" speed="7.50" length="15.91" shape="1584.66,1029.52 1580.03,1029.72 1577.03,1028.31 1575.67,1025.29 1575.94,1020.66"/>
    </edge>
    <edge id=":121759252_2" function="internal">
        <lane id=":121759252_2_0" index="0" disallow="tram rail_urban rail rail_electric rail_fast ship" speed="3.65" length="4.67" shape="1584.66,1029.52 1583.34,1028.95 1582.80,1028.24 1583.05,1027.38 1584.08,1026.37"/>
    </edge>
    <edge id=":121759252_3" function="internal">
        <lane id=":121759252_3_0" index="0" disallow="tram rail_urban rail rail_electric rail_fast ship" speed="5.84" length="9.13" shape="1579.08,1021.29 1578.92,1023.95 1579.70,1025.68 1581.42,1026.49 1584.08,1026.37"/>
    </edge>
    <edge id=":121759252_4" function="internal">
        <lane id=":121759252_4_0" index="0" disallow="tram rail_urban rail rail_electric rail_fast ship" speed="13.89" length="14.90" shape="1579.08,1021.29 1576.20,1035.91"/>
    </edge>
    <edge id=":121759252_5" function="internal">
        <lane id=":121759252_5_0" index="0" disallow="tram rail_urban rail rail_electric rail_fast ship" speed="3.65" length="2.34" shape="1579.08,1021.29 1578.06,1022.31 1577.19,1022.54"/>
    </edge>
    <edge id=":121759252_9" function="internal">
        <lane id=":121759252_9_0" index="0" disallow="tram rail_urban rail rail_electric rail_fast ship" speed="3.65" length="2.34" shape="1577.19,1022.54 1576.49,1021.99 1575.94,1020.66"/>
    </edge>
    <edge id=":121759252_6" function="internal">
        <lane id=":121759252_6_0" index="0" disallow="tram rail_urban rail rail_electric rail_fast ship" speed="13.89" length="14.93" shape="1573.06,1035.31 1575.94,1020.66"/>
    </edge>
    <edge id=":121759252_7" function="internal">
        <lane id=":121759252_7_0" index="0" disallow="tram rail_urban rail rail_electric rail_fast ship" speed="9.65" length="5.55" shape="1573.06,1035.31 1574.26,1032.07 1575.64,1030.48"/>
    </edge>
    <edge id=":121759252_8" function="internal">
        <lane id=":121759252_8_0" index="0" disallow="tram rail_urban rail rail_electric rail_fast ship" speed="3.65" length="2.34" shape="1573.06,1035.31 1574.07,1034.28 1574.93,1034.04"/>
    </edge>
    <edge id=":121759252_10" function="internal">
        <lane id=":121759252_10_0" index="0" disallow="tram rail_urban rail rail_electric rail_fast ship" speed="9.65" length="9.58" shape="1575.64,1030.48 1576.50,1029.50 1579.77,1027.60 1584.08,1026.37"/>
    </edge>
    <edge id=":121759252_11" function="internal">
        <lane id=":121759252_11_0" index="0" disallow="tram rail_urban rail rail_electric rail_fast ship" speed="3.65" length="2.34" shape="1574.93,1034.04 1575.64,1034.58 1576.20,1035.91"/>
    </edge>
    <edge id=":121759253_0" function="internal">
        <lane id=":121759253_0_0" index="0" disallow="tram rail_urban rail rail_electric rail_fast ship" speed="3.65" length="4.67" shape="1563.94,1100.00 1562.93,1101.03 1562.07,1101.27 1561.36,1100.73 1560.80,1099.40"/>
    </edge>
    <edge id=":121760217_0" function="internal">
        <lane id=":121760217_0_0" index="0" disallow="tram rail_urban rail rail_electric rail_fast ship" speed="10.05" length="12.91" shape="1695.17,1013.31 1693.15,1011.86 1690.43,1011.06 1687.00,1010.91 1682.87,1011.41"/>
    </edge>
    <edge id=":121760217_1" function="internal">
        <lane id=":121760217_1_0" index="0" disallow="tram rail_urban rail rail_electric rail_fast ship" speed="16.67" length="15.70" shape="1695.17,1013.31 1684.30,1001.98"/>
    </edge>
    <edge id=":121760217_2" function="internal">
        <lane id=":121760217_2_0" index="0" disallow="tram rail_urban rail rail_electric rail_fast ship" speed="3.65" length="2.34" shape="1695.17,1013.31 1694.93,1011.89 1695.24,1011.05"/>
    </edge>
    <edge id=":121760217_9" function="internal">
        <lane id=":121760217_9_0" index="0" disallow="tram rail_urban rail rail_electric rail_fast ship" speed="3.65" length="2.34" shape="1695.24,1011.05 1696.10,1010.79 1697.50,1011.11"/>
    </edge>
    <edge id=":121760217_3" function="internal">
        <lane id=":121760217_3_0" index="0" disallow="tram rail_urban rail rail_electric rail_fast ship" speed="16.67" length="15.75" shape="1686.60,999.75 1697.50,1011.11"/>
    </edge>
    <edge id=":121760217_4" function="internal">
        <lane id=":121760217_4_0" index="0" disallow="tram rail_urban rail rail_electric rail_fast ship" speed="7.38" length="6.87" shape="1686.60,999.75 1689.75,1003.97 1689.96,1005.56"/>
    </edge>
    <edge id=":121760217_5" function="internal">
        <lane id=":121760217_5_0" index="0" disallow="tram rail_urban rail rail_electric rail_fast ship" speed="3.65" length="2.34" shape="1686.60,999.75 1686.86,1001.17 1686.56,1002.02"/>
    </edge>
    <edge id=":121760217_10" function="internal">
        <lane id=":121760217_10_0" index="0" disallow="tram rail_urban rail rail_electric rail_fast ship" speed="7.38" length="10.42" shape="1689.96,1005.56 1690.18,1007.32 1687.89,1009.80 1682.87,1011.41"/>
    </edge>
    <edge id=":121760217_11" function="internal">
        <lane id=":121760217_11_0" index="0" disallow="tram rail_urban rail rail_electric rail_fast ship" speed="3.65" length="2.34" shape="1686.56,1002.02 1685.71,1002.29 1684.30,1001.98"/>
    </edge>
    <edge id=":121760217_6" function="internal">
        <lane id=":121760217_6_0" index="0" disallow="tram rail_urban rail rail_electric rail_fast ship" speed="5.60" length="9.32" shape="1682.29,1008.27 1685.00,1007.40 1686.23,1006.06 1686.00,1004.26 1684.30,1001.98"/>
    </edge>
    <edge id=":121760217_7" function="internal">
        <lane id=":121760217_7_0" index="0" disallow="tram rail_urban rail rail_electric rail_fast ship" speed="11.17" length="16.09" shape="1682.29,1008.27 1687.25,1007.71 1691.43,1007.99 1694.85,1009.13 1697.50,1011.11"/>
    </edge>
    <edge id=":121760217_8" function="internal">
        <lane id=":121760217_8_0" index="0" disallow="tram rail_urban rail rail_electric rail_fast ship" speed="3.65" length="4.67" shape="1682.29,1008.27 1683.62,1008.84 1684.16,1009.55 1683.91,1010.41 1682.87,1011.41"/>
    </edge>
    <edge id=":1444163205_0" function="internal">
        <lane id=":1444163205_0_0" index="0" disallow="tram rail_urban rail rail_electric rail_fast ship" speed="3.65" length="4.67" shape="1726.72,46.11 1727.31,44.79 1728.02,44.25 1728.88,44.51 1729.88,45.55"/>
    </edge>
    <edge id=":1444163210_0" function="internal">
        <lane id=":1444163210_0_0" index="0" disallow="tram rail_urban rail rail_electric rail_fast ship" speed="5.62" length="9.29" shape="1605.12,920.83 1602.85,919.16 1601.04,918.94 1599.68,920.16 1598.77,922.83"/>
    </edge>
    <edge id=":1444163210_1" function="internal">
        <lane id=":1444163210_1_0" index="0" disallow="tram rail_urban rail rail_electric rail_fast ship" speed="16.67" length="15.43" shape="1605.12,920.83 1602.38,918.16 1599.69,915.33 1597.18,912.35 1595.01,909.22"/>
    </edge>
    <edge id=":1444163210_2" function="internal">
        <lane id=":1444163210_2_0" index="0" disallow="tram rail_urban rail rail_electric rail_fast ship" speed="3.65" length="2.34" shape="1605.12,920.83 1604.81,919.43 1605.07,918.57"/>
    </edge>
    <edge id=":1444163210_9" function="internal">
        <lane id=":1444163210_9_0" index="0" disallow="tram rail_urban rail rail_electric rail_fast ship" speed="3.65" length="2.34" shape="1605.07,918.57 1605.91,918.27 1607.33,918.53"/>
    </edge>
    <edge id=":1444163210_3" function="internal">
        <lane id=":1444163210_3_0" index="0" disallow="tram rail_urban rail rail_electric rail_fast ship" speed="16.67" length="14.65" shape="1597.72,907.52 1599.82,910.55 1602.15,913.33 1604.68,915.95 1607.33,918.53"/>
    </edge>
    <edge id=":1444163210_4" function="internal">
        <lane id=":1444163210_4_0" index="0" disallow="tram rail_urban rail rail_electric rail_fast ship" speed="13.49" length="5.12" shape="1597.72,907.52 1599.13,911.02 1599.29,912.36"/>
    </edge>
    <edge id=":1444163210_5" function="internal">
        <lane id=":1444163210_5_0" index="0" disallow="tram rail_urban rail rail_electric rail_fast ship" speed="3.65" length="2.34" shape="1597.72,907.52 1597.68,908.96 1597.22,909.73"/>
    </edge>
    <edge id=":1444163210_10" function="internal">
        <lane id=":1444163210_10_0" index="0" disallow="tram rail_urban rail rail_electric rail_fast ship" speed="13.49" length="10.54" shape="1599.29,912.36 1599.59,914.94 1599.39,918.97 1598.77,922.83"/>
    </edge>
    <edge id=":1444163210_11" function="internal">
        <lane id=":1444163210_11_0" index="0" disallow="tram rail_urban rail rail_electric rail_fast ship" speed="3.65" length="2.34" shape="1597.22,909.73 1596.33,909.81 1595.01,909.22"/>
    </edge>
    <edge id=":1444163210_6" function="internal">
        <lane id=":1444163210_6_0" index="0" disallow="tram rail_urban rail rail_electric rail_fast ship" speed="12.49" length="13.35" shape="1595.63,922.20 1596.32,918.70 1596.67,915.47 1596.35,912.36 1595.01,909.22"/>
    </edge>
    <edge id=":1444163210_7" function="internal">
        <lane id=":1444163210_7_0" index="0" disallow="tram rail_urban rail rail_electric rail_fast ship" speed="7.39" length="17.13" shape="1595.63,922.20 1597.30,917.28 1599.81,915.03 1603.15,915.44 1607.33,918.53"/>
    </edge>
    <edge id=":1444163210_8" function="internal">
        <lane id=":1444163210_8_0" index="0" disallow="tram rail_urban rail rail_electric rail_fast ship" speed="3.65" length="4.67" shape="1595.63,922.20 1596.65,921.18 1597.52,920.95 1598.22,921.49 1598.77,922.83"/>
    </edge>
    <edge id=":1800131407_0" function="internal">
        <lane id=":1800131407_0_0" index="0" disallow="tram rail_urban rail rail_electric rail_fast ship" speed="5.37" length="5.49" shape="635.26,1395.96 635.29,1394.85 634.70,1393.94 633.49,1393.23 631.67,1392.71"/>
    </edge>
    <edge id=":1800131407_1" function="internal">
        <lane id=":1800131407_1_0" index="0" disallow="tram rail_urban rail rail_electric rail_fast ship" speed="22.22" length="6.00" shape="639.29,1390.35 637.52,1390.49 636.31,1390.42 635.10,1390.18 633.36,1389.80"/>
    </edge>
    <edge id=":1820897376_0" function="internal">
        <lane id=":1820897376_0_0" index="0" disallow="tram rail_urban rail rail_electric rail_fast ship" speed="13.89" length="14.08" shape="2526.82,1508.61 2524.97,1494.65"/>
    </edge>
    <edge id=":1820897376_1" function="internal">
        <lane id=":1820897376_1_0" index="0" disallow="tram rail_urban rail rail_electric rail_fast ship" speed="8.15" length="5.55" shape="2526.82,1508.61 2526.98,1504.82 2527.72,1503.22"/>
    </edge>
    <edge id=":1820897376_2" function="internal">
        <lane id=":1820897376_2_0" index="0" disallow="tram rail_urban rail rail_electric rail_fast ship" speed="3.65" length="2.34" shape="2526.82,1508.61 2527.50,1507.34 2528.25,1506.86"/>
    </edge>
    <edge id=":1820897376_9" function="internal">
        <lane id=":1820897376_9_0" index="0" disallow="tram rail_urban rail rail_electric rail_fast ship" speed="8.15" length="8.54" shape="2527.72,1503.22 2528.32,1501.91 2530.85,1499.89 2534.54,1498.76"/>
    </edge>
    <edge id=":1820897376_10" function="internal">
        <lane id=":1820897376_10_0" index="0" disallow="tram rail_urban rail rail_electric rail_fast ship" speed="3.65" length="2.34" shape="2528.25,1506.86 2529.09,1507.18 2530.01,1508.29"/>
    </edge>
    <edge id=":1820897376_3" function="internal">
        <lane id=":1820897376_3_0" index="0" disallow="tram rail_urban rail rail_electric rail_fast ship" speed="6.68" length="9.15" shape="2535.05,1501.92 2532.64,1502.66 2530.99,1503.96 2530.11,1505.84 2530.01,1508.29"/>
    </edge>
    <edge id=":1820897376_4" function="internal">
        <lane id=":1820897376_4_0" index="0" disallow="tram rail_urban rail rail_electric rail_fast ship" speed="8.00" length="14.16" shape="2535.05,1501.92 2531.17,1501.99 2528.20,1500.80 2526.13,1498.35 2524.97,1494.65"/>
    </edge>
    <edge id=":1820897376_5" function="internal">
        <lane id=":1820897376_5_0" index="0" disallow="tram rail_urban rail rail_electric rail_fast ship" speed="3.65" length="4.67" shape="2535.05,1501.92 2533.74,1501.32 2533.22,1500.60 2533.49,1499.74 2534.54,1498.76"/>
    </edge>
    <edge id=":1820897376_6" function="internal">
        <lane id=":1820897376_6_0" index="0" disallow="tram rail_urban rail rail_electric rail_fast ship" speed="6.51" length="9.01" shape="2528.13,1494.14 2528.87,1496.49 2530.18,1498.05 2532.08,1498.80 2534.54,1498.76"/>
    </edge>
    <edge id=":1820897376_7" function="internal">
        <lane id=":1820897376_7_0" index="0" disallow="tram rail_urban rail rail_electric rail_fast ship" speed="13.89" length="14.28" shape="2528.13,1494.14 2530.01,1508.29"/>
    </edge>
    <edge id=":1820897376_8" function="internal">
        <lane id=":1820897376_8_0" index="0" disallow="tram rail_urban rail rail_electric rail_fast ship" speed="3.65" length="2.34" shape="2528.13,1494.14 2527.53,1495.45 2526.81,1495.97"/>
    </edge>
    <edge id=":1820897376_11" function="internal">
        <lane id=":1820897376_11_0" index="0" disallow="tram rail_urban rail rail_electric rail_fast ship" speed="3.65" length="2.34" shape="2526.81,1495.97 2525.96,1495.71 2524.97,1494.65"/>
    </edge>
    <edge id=":1820897380_0" function="internal">
        <lane id=":1820897380_0_0" index="0" disallow="tram rail_urban rail rail_electric rail_fast ship" speed="13.89" length="14.40" shape="2393.28,2025.29 2391.28,2011.03"/>
    </edge>
    <edge id=":1820897380_1" function="internal">
        <lane id=":1820897380_1_0" index="0" disallow="tram rail_urban rail rail_electric rail_fast ship" speed="8.01" length="6.01" shape="2393.28,2025.29 2393.24,2021.44 2394.07,2019.45"/>
    </edge>
    <edge id=":1820897380_2" function="internal">
        <lane id=":1820897380_2_0" index="0" disallow="tram rail_urban rail rail_electric rail_fast ship" speed="3.65" length="2.34" shape="2393.28,2025.29 2393.90,2024.00 2394.64,2023.49"/>
    </edge>
    <edge id=":1820897380_9" function="internal">
        <lane id=":1820897380_9_0" index="0" disallow="tram rail_urban rail rail_electric rail_fast ship" speed="8.01" length="8.24" shape="2394.07,2019.45 2394.48,2018.49 2396.99,2016.45 2400.78,2015.30"/>
    </edge>
    <edge id=":1820897380_10" function="internal">
        <lane id=":1820897380_10_0" index="0" disallow="tram rail_urban rail rail_electric rail_fast ship" speed="3.65" length="2.34" shape="2394.64,2023.49 2395.49,2023.78 2396.45,2024.86"/>
    </edge>
    <edge id=":1820897380_3" function="internal">
        <lane id=":1820897380_3_0" index="0" disallow="tram rail_urban rail rail_electric rail_fast ship" speed="6.54" length="9.13" shape="2401.27,2018.47 2398.84,2019.20 2397.22,2020.51 2396.42,2022.39 2396.45,2024.86"/>
    </edge>
    <edge id=":1820897380_4" function="internal">
        <lane id=":1820897380_4_0" index="0" disallow="tram rail_urban rail rail_electric rail_fast ship" speed="7.97" length="14.26" shape="2401.27,2018.47 2397.36,2018.51 2394.39,2017.29 2392.36,2014.80 2391.28,2011.03"/>
    </edge>
    <edge id=":1820897380_5" function="internal">
        <lane id=":1820897380_5_0" index="0" disallow="tram rail_urban rail rail_electric rail_fast ship" speed="3.65" length="4.67" shape="2401.27,2018.47 2399.97,2017.86 2399.45,2017.13 2399.72,2016.28 2400.78,2015.30"/>
    </edge>
    <edge id=":1820897380_6" function="internal">
        <lane id=":1820897380_6_0" index="0" disallow="tram rail_urban rail rail_electric rail_fast ship" speed="6.47" length="9.03" shape="2394.45,2010.59 2395.14,2012.98 2396.42,2014.56 2398.30,2015.33 2400.78,2015.30"/>
    </edge>
    <edge id=":1820897380_7" function="internal">
        <lane id=":1820897380_7_0" index="0" disallow="tram rail_urban rail rail_electric rail_fast ship" speed="13.89" length="14.40" shape="2394.45,2010.59 2396.45,2024.86"/>
    </edge>
    <edge id=":1820897380_8" function="internal">
        <lane id=":1820897380_8_0" index="0" disallow="tram rail_urban rail rail_electric rail_fast ship" speed="3.65" length="2.34" shape="2394.45,2010.59 2393.82,2011.89 2393.09,2012.40"/>
    </edge>
    <edge id=":1820897380_11" function="internal">
        <lane id=":1820897380_11_0" index="0" disallow="tram rail_urban rail rail_electric rail_fast ship" speed="3.65" length="2.34" shape="2393.09,2012.40 2392.24,2012.11 2391.28,2011.03"/>
    </edge>
    <edge id=":1820897390_0" function="internal">
        <lane id=":1820897390_0_0" index="0" disallow="tram rail_urban rail rail_electric rail_fast ship" speed="27.78" length="11.23" shape="2220.73,1855.33 2219.28,1857.98 2217.31,1859.48 2215.15,1860.89 2213.08,1863.27"/>
    </edge>
    <edge id=":1820897390_1" function="internal">
        <lane id=":1820897390_1_0" index="0" disallow="tram rail_urban rail rail_electric rail_fast ship" speed="3.65" length="2.13" shape="2220.73,1855.33 2219.61,1856.24 2218.93,1856.36"/>
    </edge>
    <edge id=":1820897390_4" function="internal">
        <lane id=":1820897390_4_0" index="0" disallow="tram rail_urban rail rail_electric rail_fast ship" speed="3.65" length="2.54" shape="2218.93,1856.36 2218.73,1856.39 2218.08,1855.77 2217.67,1854.39"/>
    </edge>
    <edge id=":1820897390_2" function="internal">
        <lane id=":1820897390_2_0" index="0" disallow="tram rail_urban rail rail_electric rail_fast ship" speed="5.80" length="13.27" shape="2217.38,1865.40 2217.80,1860.57 2217.23,1858.60 2215.66,1859.50 2213.08,1863.27"/>
    </edge>
    <edge id=":1820897390_3" function="internal">
        <lane id=":1820897390_3_0" index="0" disallow="tram rail_urban rail rail_electric rail_fast ship" speed="27.78" length="11.08" shape="2217.38,1865.40 2217.53,1862.26 2217.25,1859.83 2217.11,1857.43 2217.67,1854.39"/>
    </edge>
    <edge id=":1820897391_0" function="internal">
        <lane id=":1820897391_0_0" index="0" disallow="tram rail_urban rail rail_electric rail_fast ship" speed="13.89" length="9.55" shape="2092.74,1333.29 2090.03,1333.13 2088.27,1332.27 2086.51,1331.21 2083.80,1330.44"/>
    </edge>
    <edge id=":1820897391_1" function="internal">
        <lane id=":1820897391_1_0" index="0" disallow="tram rail_urban rail rail_electric rail_fast ship" speed="3.65" length="2.01" shape="2092.74,1333.29 2091.47,1332.62 2091.16,1332.14"/>
    </edge>
    <edge id=":1820897391_4" function="internal">
        <lane id=":1820897391_4_0" index="0" disallow="tram rail_urban rail rail_electric rail_fast ship" speed="3.65" length="2.67" shape="2091.16,1332.14 2090.99,1331.86 2091.30,1331.03 2092.41,1330.11"/>
    </edge>
    <edge id=":1820897391_2" function="internal">
        <lane id=":1820897391_2_0" index="0" disallow="tram rail_urban rail rail_electric rail_fast ship" speed="5.48" length="10.88" shape="2084.34,1335.59 2087.64,1333.79 2088.65,1332.32 2087.37,1331.21 2083.80,1330.44"/>
    </edge>
    <edge id=":1820897391_3" function="internal">
        <lane id=":1820897391_3_0" index="0" disallow="tram rail_urban rail rail_electric rail_fast ship" speed="13.89" length="9.99" shape="2084.34,1335.59 2086.80,1333.97 2088.23,1332.30 2089.73,1330.90 2092.41,1330.11"/>
    </edge>
    <edge id=":1820897409_0" function="internal">
        <lane id=":1820897409_0_0" index="0" disallow="tram rail_urban rail rail_electric rail_fast ship" speed="27.78" length="5.82" shape="2207.56,1883.04 2208.72,1881.76 2209.48,1880.85 2210.11,1879.85 2210.93,1878.33"/>
    </edge>
    <edge id=":1820897409_1" function="internal">
        <lane id=":1820897409_1_0" index="0" disallow="tram rail_urban rail rail_electric rail_fast ship" speed="4.99" length="5.05" shape="2207.56,1883.04 2208.64,1882.16 2209.73,1881.85 2210.83,1882.11 2211.94,1882.94"/>
    </edge>
    <edge id=":1820897410_0" function="internal">
        <lane id=":1820897410_0_0" index="0" disallow="tram rail_urban rail rail_electric rail_fast ship" speed="13.89" length="14.40" shape="2595.53,1245.55 2581.32,1247.88"/>
    </edge>
    <edge id=":1820897410_1" function="internal">
        <lane id=":1820897410_1_0" index="0" disallow="tram rail_urban rail rail_electric rail_fast ship" speed="8.05" length="5.90" shape="2595.53,1245.55 2591.66,1245.63 2589.77,1244.87"/>
    </edge>
    <edge id=":1820897410_2" function="internal">
        <lane id=":1820897410_2_0" index="0" disallow="tram rail_urban rail rail_electric rail_fast ship" speed="3.65" length="2.34" shape="2595.53,1245.55 2594.22,1244.96 2593.69,1244.23"/>
    </edge>
    <edge id=":1820897410_9" function="internal">
        <lane id=":1820897410_9_0" index="0" disallow="tram rail_urban rail rail_electric rail_fast ship" speed="8.05" length="8.31" shape="2589.77,1244.87 2588.68,1244.44 2586.58,1241.99 2585.36,1238.28"/>
    </edge>
    <edge id=":1820897410_10" function="internal">
        <lane id=":1820897410_10_0" index="0" disallow="tram rail_urban rail rail_electric rail_fast ship" speed="3.65" length="2.34" shape="2593.69,1244.23 2593.96,1243.38 2595.01,1242.39"/>
    </edge>
    <edge id=":1820897410_3" function="internal">
        <lane id=":1820897410_3_0" index="0" disallow="tram rail_urban rail rail_electric rail_fast ship" speed="6.56" length="9.10" shape="2588.51,1237.72 2589.29,1240.10 2590.63,1241.68 2592.54,1242.44 2595.01,1242.39"/>
    </edge>
    <edge id=":1820897410_4" function="internal">
        <lane id=":1820897410_4_0" index="0" disallow="tram rail_urban rail rail_electric rail_fast ship" speed="7.98" length="14.25" shape="2588.51,1237.72 2588.65,1241.63 2587.49,1244.62 2585.05,1246.71 2581.32,1247.88"/>
    </edge>
    <edge id=":1820897410_5" function="internal">
        <lane id=":1820897410_5_0" index="0" disallow="tram rail_urban rail rail_electric rail_fast ship" speed="3.65" length="4.67" shape="2588.51,1237.72 2587.93,1239.04 2587.22,1239.57 2586.36,1239.32 2585.36,1238.28"/>
    </edge>
    <edge id=":1820897410_6" function="internal">
        <lane id=":1820897410_6_0" index="0" disallow="tram rail_urban rail rail_electric rail_fast ship" speed="6.48" length="9.03" shape="2580.80,1244.72 2583.17,1243.98 2584.72,1242.66 2585.45,1240.76 2585.36,1238.28"/>
    </edge>
    <edge id=":1820897410_7" function="internal">
        <lane id=":1820897410_7_0" index="0" disallow="tram rail_urban rail rail_electric rail_fast ship" speed="13.89" length="14.40" shape="2580.80,1244.72 2595.01,1242.39"/>
    </edge>
    <edge id=":1820897410_8" function="internal">
        <lane id=":1820897410_8_0" index="0" disallow="tram rail_urban rail rail_electric rail_fast ship" speed="3.65" length="2.34" shape="2580.80,1244.72 2582.11,1245.32 2582.64,1246.04"/>
    </edge>
    <edge id=":1820897410_11" function="internal">
        <lane id=":1820897410_11_0" index="0" disallow="tram rail_urban rail rail_electric rail_fast ship" speed="3.65" length="2.34" shape="2582.64,1246.04 2582.37,1246.90 2581.32,1247.88"/>
    </edge>
    <edge id=":1820897421_0" function="internal">