<?xml version="1.0" encoding="UTF-8"?>

<!-- generated on 2022-04-07 09:04:06 by Eclipse SUMO netconvert Version 1.9.2
<configuration xmlns:xsi="http://www.w3.org/2001/XMLSchema-instance" xsi:noNamespaceSchemaLocation="http://sumo.dlr.de/xsd/netconvertConfiguration.xsd">

    <input>
        <sumo-net-file value="Chodov.net.xml"/>
    </input>

    <output>
        <output-file value="test.net.xml"/>
    </output>

    <processing>
        <geometry.min-radius.fix.railways value="false"/>
        <geometry.max-grade.fix value="false"/>
        <offset.disable-normalization value="true"/>
        <lefthand value="false"/>
    </processing>

    <edge_removal>
        <keep-edges.explicit value="9142827#2,4052905#3,4052905#1,172815831#0,-22913177#1,-9142829#2,-132928352#3,4052373#6,9142824#2,9142829#0,-132928352#1,356936384#1,-132928352#0,9142824#3,22913178,171997421,-4052373#1,-9141751,4052905#2,-809537864,-9142827#1,356936384#0,-52431741,620350095#1,9142824#1,132928352#3,-4053399,140228764,4052373#5,150542355,4052373#3,-22913179#0,4052373#2,4052373#1,114102398,4052373#0,132928352#1,-9142829#1,4052373#7,-22913176#0,9142381#1,167160839,-9142829#0,4052905#4,9142381#0,4052373#4,167160840,172815831#1,-9142827#2,-172815831#1,171997420,-9142379#1"/>
    </edge_removal>

    <junctions>
        <no-turnarounds value="true"/>
        <junctions.corner-detail value="5"/>
        <junctions.limit-turn-speed value="5.5"/>
        <rectangular-lane-cut value="false"/>
    </junctions>

    <pedestrian>
        <walkingareas value="false"/>
    </pedestrian>

    <report>
        <aggregate-warnings value="5"/>
    </report>

</configuration>
-->

<net version="1.9" junctionCornerDetail="5" limitTurnSpeed="5.50" xmlns:xsi="http://www.w3.org/2001/XMLSchema-instance" xsi:noNamespaceSchemaLocation="http://sumo.dlr.de/xsd/net_file.xsd">

    <location netOffset="-464172.98,-5542009.12" convBoundary="21.99,151.05,1358.10,748.01" origBoundary="14.498404,50.026590,14.520810,50.038591" projParameter="+proj=utm +zone=33 +ellps=WGS84 +datum=WGS84 +units=m +no_defs"/>

    <type id="highway.bridleway" priority="1" numLanes="1" speed="2.78" allow="pedestrian" oneway="1" width="2.00"/>
    <type id="highway.bus_guideway" priority="1" numLanes="1" speed="27.78" allow="bus" oneway="1"/>
    <type id="highway.cycleway" priority="1" numLanes="1" speed="8.33" allow="bicycle" oneway="0" width="1.00"/>
    <type id="highway.footway" priority="1" numLanes="1" speed="2.78" allow="pedestrian" oneway="1" width="2.00"/>
    <type id="highway.ford" priority="1" numLanes="1" speed="2.78" allow="army" oneway="0"/>
    <type id="highway.living_street" priority="2" numLanes="1" speed="2.78" disallow="tram rail_urban rail rail_electric rail_fast ship" oneway="0"/>
    <type id="highway.motorway" priority="14" numLanes="2" speed="39.44" allow="private emergency authority army vip passenger hov taxi bus coach delivery truck trailer motorcycle evehicle custom1 custom2" oneway="1"/>
    <type id="highway.motorway_link" priority="9" numLanes="1" speed="22.22" allow="private emergency authority army vip passenger hov taxi bus coach delivery truck trailer motorcycle evehicle custom1 custom2" oneway="1"/>
    <type id="highway.path" priority="1" numLanes="1" speed="2.78" allow="pedestrian bicycle" oneway="0" width="2.00"/>
    <type id="highway.pedestrian" priority="1" numLanes="1" speed="2.78" allow="pedestrian" oneway="1" width="2.00"/>
    <type id="highway.primary" priority="12" numLanes="2" speed="27.78" disallow="tram rail_urban rail rail_electric rail_fast ship" oneway="0"/>
    <type id="highway.primary_link" priority="7" numLanes="1" speed="22.22" disallow="tram rail_urban rail rail_electric rail_fast ship" oneway="0"/>
    <type id="highway.raceway" priority="15" numLanes="2" speed="83.33" allow="vip" oneway="0"/>
    <type id="highway.residential" priority="3" numLanes="1" speed="13.89" disallow="tram rail_urban rail rail_electric rail_fast ship" oneway="0"/>
    <type id="highway.secondary" priority="11" numLanes="1" speed="27.78" disallow="tram rail_urban rail rail_electric rail_fast ship" oneway="0"/>
    <type id="highway.secondary_link" priority="6" numLanes="1" speed="22.22" disallow="tram rail_urban rail rail_electric rail_fast ship" oneway="0"/>
    <type id="highway.service" priority="1" numLanes="1" speed="5.56" allow="pedestrian delivery bicycle" oneway="0"/>
    <type id="highway.stairs" priority="1" numLanes="1" speed="1.39" allow="pedestrian" oneway="1" width="2.00"/>
    <type id="highway.step" priority="1" numLanes="1" speed="1.39" allow="pedestrian" oneway="1" width="2.00"/>
    <type id="highway.steps" priority="1" numLanes="1" speed="1.39" allow="pedestrian" oneway="1" width="2.00"/>
    <type id="highway.tertiary" priority="10" numLanes="1" speed="22.22" disallow="tram rail_urban rail rail_electric rail_fast ship" oneway="0"/>
    <type id="highway.tertiary_link" priority="5" numLanes="1" speed="22.22" disallow="tram rail_urban rail rail_electric rail_fast ship" oneway="0"/>
    <type id="highway.track" priority="1" numLanes="1" speed="5.56" allow="pedestrian motorcycle moped bicycle" oneway="0"/>
    <type id="highway.trunk" priority="13" numLanes="2" speed="27.78" disallow="pedestrian bicycle tram rail_urban rail rail_electric rail_fast ship" oneway="0"/>
    <type id="highway.trunk_link" priority="8" numLanes="1" speed="22.22" disallow="pedestrian bicycle tram rail_urban rail rail_electric rail_fast ship" oneway="0"/>
    <type id="highway.unclassified" priority="4" numLanes="1" speed="13.89" disallow="tram rail_urban rail rail_electric rail_fast ship" oneway="0"/>
    <type id="highway.unsurfaced" priority="1" numLanes="1" speed="8.33" disallow="tram rail_urban rail rail_electric rail_fast ship" oneway="0"/>
    <type id="railway.highspeed" priority="21" numLanes="1" speed="69.44" allow="rail_fast" oneway="1"/>
    <type id="railway.light_rail" priority="19" numLanes="1" speed="27.78" allow="rail_urban" oneway="1"/>
    <type id="railway.preserved" priority="16" numLanes="1" speed="27.78" allow="rail" oneway="1"/>
    <type id="railway.rail" priority="20" numLanes="1" speed="44.44" allow="rail" oneway="1"/>
    <type id="railway.subway" priority="18" numLanes="1" speed="27.78" allow="rail_urban" oneway="1"/>
    <type id="railway.tram" priority="17" numLanes="1" speed="13.89" allow="tram" oneway="1"/>

    <edge id=":1293084424_0" function="internal">
        <lane id=":1293084424_0_0" index="0" disallow="tram rail_urban rail rail_electric rail_fast ship" speed="13.89" length="0.10" shape="545.41,288.29 545.43,288.37"/>
    </edge>
    <edge id=":1837610457_0" function="internal">
        <lane id=":1837610457_0_0" index="0" disallow="tram rail_urban rail rail_electric rail_fast ship" speed="13.89" length="0.30" shape="474.82,505.12 475.11,505.20"/>
    </edge>
    <edge id=":246686629_0" function="internal">
        <lane id=":246686629_0_0" index="0" disallow="tram rail_urban rail rail_electric rail_fast ship" speed="13.89" length="0.21" shape="1028.57,605.65 1028.77,605.72"/>
    </edge>
    <edge id=":246686983_0" function="internal">
        <lane id=":246686983_0_0" index="0" disallow="tram rail_urban rail rail_electric rail_fast ship" speed="6.02" length="9.30" shape="739.93,526.73 739.44,529.11 740.07,530.89 741.81,532.04 744.65,532.59"/>
    </edge>
    <edge id=":246686983_1" function="internal">
        <lane id=":246686983_1_0" index="0" disallow="tram rail_urban rail rail_electric rail_fast ship" speed="8.27" length="11.06" shape="739.93,526.73 738.29,530.47 736.69,533.14 735.12,534.73 733.58,535.26"/>
    </edge>
    <edge id=":246686983_2" function="internal">
        <lane id=":246686983_2_0" index="0" disallow="tram rail_urban rail rail_electric rail_fast ship" speed="13.89" length="11.06" shape="733.61,532.06 744.65,532.59"/>
    </edge>
    <edge id=":246686983_3" function="internal">
        <lane id=":246686983_3_0" index="0" disallow="tram rail_urban rail rail_electric rail_fast ship" speed="3.65" length="4.67" shape="733.61,532.06 734.80,532.87 735.20,533.67 734.79,534.47 733.58,535.26"/>
    </edge>
    <edge id=":246686987_0" function="internal">
        <lane id=":246686987_0_0" index="0" disallow="tram rail_urban rail rail_electric rail_fast ship" speed="3.90" length="2.57" shape="778.89,424.53 779.54,424.79 779.95,425.20 780.12,425.76 780.05,426.46"/>
    </edge>
    <edge id=":246686989_0" function="internal">
        <lane id=":246686989_0_0" index="0" disallow="tram rail_urban rail rail_electric rail_fast ship" speed="6.23" length="3.92" shape="577.10,439.18 577.19,436.63 578.04,435.55"/>
    </edge>
    <edge id=":246686989_1" function="internal">
        <lane id=":246686989_1_0" index="0" disallow="tram rail_urban rail rail_electric rail_fast ship" speed="3.65" length="2.34" shape="577.10,439.18 577.70,437.87 578.43,437.35"/>
    </edge>
    <edge id=":246686989_4" function="internal">
        <lane id=":246686989_4_0" index="0" disallow="tram rail_urban rail rail_electric rail_fast ship" speed="6.23" length="6.58" shape="578.04,435.55 578.42,435.06 580.79,434.49 584.30,434.89"/>
    </edge>
    <edge id=":246686989_5" function="internal">
        <lane id=":246686989_5_0" index="0" disallow="tram rail_urban rail rail_electric rail_fast ship" speed="3.65" length="2.34" shape="578.43,437.35 579.28,437.62 580.26,438.68"/>
    </edge>
    <edge id=":246686989_2" function="internal">
        <lane id=":246686989_2_0" index="0" disallow="tram rail_urban rail rail_electric rail_fast ship" speed="7.24" length="7.67" shape="578.68,430.31 579.31,431.91 580.46,433.21 582.12,434.20 584.30,434.89"/>
    </edge>
    <edge id=":246686989_3" function="internal">
        <lane id=":246686989_3_0" index="0" disallow="tram rail_urban rail rail_electric rail_fast ship" speed="13.89" length="8.52" shape="578.68,430.31 580.26,438.68"/>
    </edge>
    <edge id=":246686990_0" function="internal">
        <lane id=":246686990_0_0" index="0" disallow="tram rail_urban rail rail_electric rail_fast ship" speed="3.90" length="2.59" shape="659.37,451.48 660.08,451.53 660.63,451.34 661.03,450.92 661.28,450.25"/>
    </edge>
    <edge id=":246686991_0" function="internal">
        <lane id=":246686991_0_0" index="0" disallow="tram rail_urban rail rail_electric rail_fast ship" speed="3.90" length="2.72" shape="673.17,395.65 673.43,394.94 673.85,394.51 674.44,394.35 675.18,394.46"/>
    </edge>
    <edge id=":249609340_0" function="internal">
        <lane id=":249609340_0_0" index="0" disallow="tram rail_urban rail rail_electric rail_fast ship" speed="13.89" length="0.10" shape="344.32,472.10 344.42,472.13"/>
    </edge>
    <edge id=":316717715_0" function="internal">
        <lane id=":316717715_0_0" index="0" disallow="tram rail_urban rail rail_electric rail_fast ship" speed="13.89" length="7.54" shape="558.77,238.32 557.03,239.72 555.62,240.42 554.27,241.17 552.71,242.71"/>
    </edge>
    <edge id=":666516979_0" function="internal">
        <lane id=":666516979_0_0" index="0" disallow="tram rail_urban rail rail_electric rail_fast ship" speed="13.89" length="0.27" shape="542.23,677.11 542.50,677.14"/>
    </edge>
    <edge id=":666516985_0" function="internal">
        <lane id=":666516985_0_0" index="0" disallow="tram rail_urban rail rail_electric rail_fast ship" speed="6.52" length="9.00" shape="684.80,680.25 686.71,681.82 688.66,682.40 690.66,682.00 692.69,680.62"/>
    </edge>
    <edge id=":666516985_1" function="internal">
        <lane id=":666516985_1_0" index="0" disallow="tram rail_urban rail rail_electric rail_fast ship" speed="13.89" length="11.15" shape="684.42,688.10 692.69,680.62"/>
    </edge>
    <edge id=":67822780_0" function="internal">
        <lane id=":67822780_0_0" index="0" disallow="tram rail_urban rail rail_electric rail_fast ship" speed="8.33" length="13.01" shape="609.54,686.16 611.62,699.00"/>
    </edge>
    <edge id=":67822780_1" function="internal">
        <lane id=":67822780_1_0" index="0" disallow="tram rail_urban rail rail_electric rail_fast ship" speed="3.65" length="4.67" shape="609.54,686.16 608.92,687.47 608.19,687.98 607.34,687.70 606.38,686.62"/>
    </edge>
    <edge id=":67822780_2" function="internal">
        <lane id=":67822780_2_0" index="0" disallow="tram rail_urban rail rail_electric rail_fast ship" speed="5.77" length="9.16" shape="601.08,691.21 603.75,691.62 605.52,690.99 606.40,689.32 606.38,686.62"/>
    </edge>
    <edge id=":67822780_3" function="internal">
        <lane id=":67822780_3_0" index="0" disallow="tram rail_urban rail rail_electric rail_fast ship" speed="9.79" length="13.69" shape="601.08,691.21 605.32,692.76 608.50,694.58 610.60,696.66 611.62,699.00"/>
    </edge>
    <edge id=":67825697_0" function="internal">
        <lane id=":67825697_0_0" index="0" disallow="tram rail_urban rail rail_electric rail_fast ship" speed="13.89" length="0.25" shape="212.50,426.78 212.74,426.86"/>
    </edge>
    <edge id=":67829218_0" function="internal">
        <lane id=":67829218_0_0" index="0" disallow="tram rail_urban rail rail_electric rail_fast ship" speed="6.14" length="9.06" shape="415.46,579.33 414.87,581.81 415.28,583.75 416.69,585.14 419.09,585.98"/>
    </edge>
    <edge id=":67829218_1" function="internal">
        <lane id=":67829218_1_0" index="0" disallow="tram rail_urban rail rail_electric rail_fast ship" speed="13.89" length="11.70" shape="415.46,579.33 414.26,582.34 413.31,584.78 412.44,587.24 411.48,590.33"/>
    </edge>
    <edge id=":67829249_0" function="internal">
        <lane id=":67829249_0_0" index="0" disallow="tram rail_urban rail rail_electric rail_fast ship" speed="13.89" length="11.21" shape="441.88,496.39 452.71,499.30"/>
    </edge>
    <edge id=":67829249_1" function="internal">
        <lane id=":67829249_1_0" index="0" disallow="tram rail_urban rail rail_electric rail_fast ship" speed="6.25" length="9.05" shape="441.88,496.39 444.19,497.41 445.52,498.90 445.88,500.86 445.25,503.31"/>
    </edge>
    <edge id=":67836585_0" function="internal">
        <lane id=":67836585_0_0" index="0" disallow="tram rail_urban rail rail_electric rail_fast ship" speed="3.90" length="2.92" shape="391.37,658.51 391.26,659.32 391.44,659.93 391.93,660.34 392.73,660.55"/>
    </edge>
    <edge id=":67843478_0" function="internal">
        <lane id=":67843478_0_0" index="0" disallow="tram rail_urban rail rail_electric rail_fast ship" speed="13.89" length="0.29" shape="1116.16,632.38 1116.44,632.47"/>
    </edge>
    <edge id=":67843506_0" function="internal">
        <lane id=":67843506_0_0" index="0" disallow="tram rail_urban rail rail_electric rail_fast ship" speed="3.90" length="2.57" shape="840.62,714.76 841.15,715.22 841.70,715.40 842.28,715.30 842.87,714.92"/>
    </edge>
    <edge id=":67843509_0" function="internal">
        <lane id=":67843509_0_0" index="0" disallow="tram rail_urban rail rail_electric rail_fast ship" speed="13.89" length="0.30" shape="859.73,700.43 859.96,700.23"/>
    </edge>
    <edge id=":67843510_0" function="internal">
        <lane id=":67843510_0_0" index="0" disallow="tram rail_urban rail rail_electric rail_fast ship" speed="13.89" length="0.29" shape="919.09,648.91 919.31,648.72"/>
    </edge>
    <edge id=":67843515_0" function="internal">
        <lane id=":67843515_0_0" index="0" disallow="tram rail_urban rail rail_electric rail_fast ship" speed="13.89" length="8.15" shape="980.59,588.41 988.15,591.46"/>
    </edge>
    <edge id=":67843515_1" function="internal">
        <lane id=":67843515_1_0" index="0" disallow="tram rail_urban rail rail_electric rail_fast ship" speed="7.54" length="7.41" shape="981.35,593.47 983.15,592.18 984.89,591.42 986.55,591.18 988.15,591.46"/>
    </edge>
    <edge id=":67843610_0" function="internal">
        <lane id=":67843610_0_0" index="0" disallow="tram rail_urban rail rail_electric rail_fast ship" speed="6.50" length="9.03" shape="765.13,619.46 763.50,621.33 762.86,623.26 763.22,625.27 764.56,627.35"/>
    </edge>
    <edge id=":67843610_1" function="internal">
        <lane id=":67843610_1_0" index="0" disallow="tram rail_urban rail rail_electric rail_fast ship" speed="8.00" length="5.80" shape="765.13,619.46 761.85,621.56 759.97,621.89"/>
    </edge>
    <edge id=":67843610_2" function="internal">
        <lane id=":67843610_2_0" index="0" disallow="tram rail_urban rail rail_electric rail_fast ship" speed="3.65" length="2.34" shape="765.13,619.46 763.70,619.64 762.87,619.29"/>
    </edge>
    <edge id=":67843610_9" function="internal">
        <lane id=":67843610_9_0" index="0" disallow="tram rail_urban rail rail_electric rail_fast ship" speed="8.00" length="8.41" shape="759.97,621.89 758.69,622.11 755.64,621.10 752.71,618.53"/>
    </edge>
    <edge id=":67843610_10" function="internal">
        <lane id=":67843610_10_0" index="0" disallow="tram rail_urban rail rail_electric rail_fast ship" speed="3.65" length="2.34" shape="762.87,619.29 762.65,618.43 763.04,617.04"/>
    </edge>
    <edge id=":67843610_3" function="internal">
        <lane id=":67843610_3_0" index="0" disallow="tram rail_urban rail rail_electric rail_fast ship" speed="6.50" length="9.04" shape="755.14,616.45 757.00,618.08 758.94,618.72 760.95,618.37 763.04,617.04"/>
    </edge>
    <edge id=":67843610_4" function="internal">
        <lane id=":67843610_4_0" index="0" disallow="tram rail_urban rail rail_electric rail_fast ship" speed="13.89" length="14.41" shape="755.14,616.45 764.56,627.35"/>
    </edge>
    <edge id=":67843610_5" function="internal">
        <lane id=":67843610_5_0" index="0" disallow="tram rail_urban rail rail_electric rail_fast ship" speed="3.65" length="4.67" shape="755.14,616.45 755.32,617.88 754.97,618.70 754.10,618.92 752.71,618.53"/>
    </edge>
    <edge id=":67843610_6" function="internal">
        <lane id=":67843610_6_0" index="0" disallow="tram rail_urban rail rail_electric rail_fast ship" speed="6.60" length="9.11" shape="752.28,626.55 753.85,624.65 754.44,622.68 754.07,620.64 752.71,618.53"/>
    </edge>
    <edge id=":67843610_7" function="internal">
        <lane id=":67843610_7_0" index="0" disallow="tram rail_urban rail rail_electric rail_fast ship" speed="13.89" length="14.36" shape="752.28,626.55 763.04,617.04"/>
    </edge>
    <edge id=":67843610_8" function="internal">
        <lane id=":67843610_8_0" index="0" disallow="tram rail_urban rail rail_electric rail_fast ship" speed="7.92" length="10.09" shape="752.28,626.55 755.47,624.40 758.59,623.82 761.50,624.76"/>
    </edge>
    <edge id=":67843610_11" function="internal">
        <lane id=":67843610_11_0" index="0" disallow="tram rail_urban rail rail_electric rail_fast ship" speed="7.92" length="4.02" shape="761.50,624.76 761.62,624.80 764.56,627.35"/>
    </edge>
    <edge id=":67843616_0" function="internal">
        <lane id=":67843616_0_0" index="0" disallow="tram rail_urban rail rail_electric rail_fast ship" speed="7.38" length="16.28" shape="686.33,540.41 684.98,535.95 685.76,532.84 688.65,531.07 693.66,530.66"/>
    </edge>
    <edge id=":67843616_1" function="internal">
        <lane id=":67843616_1_0" index="0" disallow="tram rail_urban rail rail_electric rail_fast ship" speed="3.66" length="4.72" shape="686.33,540.41 686.74,539.01 687.39,538.39 688.28,538.54 689.41,539.46"/>
    </edge>
    <edge id=":67843616_2" function="internal">
        <lane id=":67843616_2_0" index="0" disallow="tram rail_urban rail rail_electric rail_fast ship" speed="5.74" length="9.27" shape="693.52,533.86 690.69,534.09 689.06,535.11 688.64,536.90 689.41,539.46"/>
    </edge>
    <edge id=":67843616_3" function="internal">
        <lane id=":67843616_3_0" index="0" disallow="tram rail_urban rail rail_electric rail_fast ship" speed="3.65" length="2.34" shape="693.52,533.86 692.35,533.00 691.99,532.19"/>
    </edge>
    <edge id=":67843616_6" function="internal">
        <lane id=":67843616_6_0" index="0" disallow="tram rail_urban rail rail_electric rail_fast ship" speed="3.65" length="2.34" shape="691.99,532.19 692.42,531.41 693.66,530.66"/>
    </edge>
    <edge id=":67843616_4" function="internal">
        <lane id=":67843616_4_0" index="0" disallow="tram rail_urban rail rail_electric rail_fast ship" speed="13.89" length="15.92" shape="677.75,529.84 693.66,530.66"/>
    </edge>
    <edge id=":67843616_5" function="internal">
        <lane id=":67843616_5_0" index="0" disallow="tram rail_urban rail rail_electric rail_fast ship" speed="10.59" length="11.59" shape="677.75,529.84 681.25,530.61 684.36,532.47 687.08,535.42 687.27,535.74"/>
    </edge>
    <edge id=":67843616_7" function="internal">
        <lane id=":67843616_7_0" index="0" disallow="tram rail_urban rail rail_electric rail_fast ship" speed="10.59" length="4.29" shape="687.27,535.74 689.41,539.46"/>
    </edge>
    <edge id=":67851937_0" function="internal">
        <lane id=":67851937_0_0" index="0" disallow="tram rail_urban rail rail_electric rail_fast ship" speed="13.89" length="0.10" shape="903.40,555.48 903.47,555.51"/>
    </edge>
    <edge id=":683530_0" function="internal">
        <lane id=":683530_0_0" index="0" disallow="tram rail_urban rail rail_electric rail_fast ship" speed="13.89" length="6.27" shape="467.62,194.38 468.08,192.73 467.97,191.50 467.76,190.25 467.92,188.49"/>
        <lane id=":683530_0_1" index="1" disallow="tram rail_urban rail rail_electric rail_fast ship" speed="13.89" length="6.27" shape="470.54,195.68 471.07,193.87 471.01,192.53 470.84,191.15 471.04,189.22"/>
    </edge>
    <edge id=":683531_0" function="internal">
        <lane id=":683531_0_0" index="0" disallow="tram rail_urban rail rail_electric rail_fast ship" speed="13.89" length="7.08" shape="490.90,159.95 492.54,158.55 493.46,157.33 494.43,156.19 496.21,155.04"/>
        <lane id=":683531_0_1" index="1" disallow="tram rail_urban rail rail_electric rail_fast ship" speed="13.89" length="7.08" shape="492.70,162.60 494.22,161.27 495.06,160.10 495.95,159.01 497.61,157.92"/>
    </edge>
    <edge id=":683533_0" function="internal">
        <lane id=":683533_0_0" index="0" disallow="tram rail_urban rail rail_electric rail_fast ship" speed="13.89" length="0.39" shape="550.88,159.37 551.02,159.47 551.12,159.54 551.21,159.61 551.35,159.73"/>
        <lane id=":683533_0_1" index="1" disallow="tram rail_urban rail rail_electric rail_fast ship" speed="13.89" length="0.39" shape="549.10,162.03 549.14,162.06 549.18,162.09 549.21,162.11 549.25,162.15"/>
    </edge>
    <edge id=":683534_0" function="internal">
        <lane id=":683534_0_0" index="0" disallow="tram rail_urban rail rail_electric rail_fast ship" speed="13.89" length="0.49" shape="564.19,172.78 564.32,172.96 564.41,173.08 564.49,173.21 564.59,173.39"/>
        <lane id=":683534_0_1" index="1" disallow="tram rail_urban rail rail_electric rail_fast ship" speed="13.89" length="0.49" shape="561.65,174.73 561.69,174.79 561.72,174.83 561.75,174.87 561.78,174.93"/>
    </edge>
    <edge id=":688006_0" function="internal">
        <lane id=":688006_0_0" index="0" disallow="tram rail_urban rail rail_electric rail_fast ship" speed="13.89" length="0.56" shape="563.54,232.83 563.41,233.05 563.32,233.19 563.21,233.32 563.05,233.51"/>
        <lane id=":688006_0_1" index="1" disallow="tram rail_urban rail rail_electric rail_fast ship" speed="13.89" length="0.56" shape="560.79,231.20 560.74,231.28 560.71,231.32 560.68,231.37 560.62,231.43"/>
    </edge>
    <edge id=":694201_0" function="internal">
        <lane id=":694201_0_0" index="0" disallow="tram rail_urban rail rail_electric rail_fast ship" speed="3.96" length="3.73" shape="620.24,742.37 620.60,743.43 621.16,743.93 621.90,743.88 622.84,743.28"/>
    </edge>
    <edge id=":694202_0" function="internal">
        <lane id=":694202_0_0" index="0" disallow="tram rail_urban rail rail_electric rail_fast ship" speed="11.11" length="12.47" shape="591.20,530.85 589.50,518.50"/>
    </edge>
    <edge id=":694202_1" function="internal">
        <lane id=":694202_1_0" index="0" disallow="tram rail_urban rail rail_electric rail_fast ship" speed="7.03" length="4.07" shape="591.20,530.85 591.48,528.09 592.30,527.07"/>
    </edge>
    <edge id=":694202_2" function="internal">
        <lane id=":694202_2_0" index="0" disallow="tram rail_urban rail rail_electric rail_fast ship" speed="3.65" length="2.34" shape="591.20,530.85 591.87,529.57 592.63,529.10"/>
    </edge>
    <edge id=":694202_9" function="internal">
        <lane id=":694202_9_0" index="0" disallow="tram rail_urban rail rail_electric rail_fast ship" speed="7.03" length="7.97" shape="592.30,527.07 592.99,526.20 595.71,525.18 599.66,525.03"/>
    </edge>
    <edge id=":694202_10" function="internal">
        <lane id=":694202_10_0" index="0" disallow="tram rail_urban rail rail_electric rail_fast ship" speed="3.65" length="2.34" shape="592.63,529.10 593.47,529.41 594.38,530.52"/>
    </edge>
    <edge id=":694202_3" function="internal">
        <lane id=":694202_3_0" index="0" disallow="tram rail_urban rail rail_electric rail_fast ship" speed="7.68" length="10.84" shape="592.66,518.00 593.49,520.94 594.94,523.09 596.99,524.45 599.66,525.03"/>
    </edge>
    <edge id=":694202_4" function="internal">
        <lane id=":694202_4_0" index="0" disallow="tram rail_urban rail rail_electric rail_fast ship" speed="11.11" length="12.64" shape="592.66,518.00 594.38,530.52"/>
    </edge>
    <edge id=":694202_5" function="internal">
        <lane id=":694202_5_0" index="0" disallow="tram rail_urban rail rail_electric rail_fast ship" speed="3.65" length="2.34" shape="592.66,518.00 592.06,519.31 591.33,519.83"/>
    </edge>
    <edge id=":694202_11" function="internal">
        <lane id=":694202_11_0" index="0" disallow="tram rail_urban rail rail_electric rail_fast ship" speed="3.65" length="2.34" shape="591.33,519.83 590.48,519.56 589.50,518.50"/>
    </edge>
    <edge id=":694202_6" function="internal">
        <lane id=":694202_6_0" index="0" disallow="tram rail_urban rail rail_electric rail_fast ship" speed="6.07" length="9.07" shape="584.44,524.01 587.00,523.82 588.70,522.85 589.54,521.07 589.50,518.50"/>
    </edge>
    <edge id=":694202_7" function="internal">
        <lane id=":694202_7_0" index="0" disallow="tram rail_urban rail rail_electric rail_fast ship" speed="13.89" length="15.25" shape="584.44,524.01 599.66,525.03"/>
    </edge>
    <edge id=":694202_8" function="internal">
        <lane id=":694202_8_0" index="0" disallow="tram rail_urban rail rail_electric rail_fast ship" speed="8.20" length="12.97" shape="584.44,524.01 588.57,524.67 591.60,525.97 593.54,527.93 594.38,530.52"/>
    </edge>
    <edge id=":694207_0" function="internal">
        <lane id=":694207_0_0" index="0" disallow="tram rail_urban rail rail_electric rail_fast ship" speed="13.89" length="9.64" shape="839.95,539.52 849.52,540.72"/>
    </edge>
    <edge id=":694207_1" function="internal">
        <lane id=":694207_1_0" index="0" disallow="tram rail_urban rail rail_electric rail_fast ship" speed="5.87" length="8.52" shape="839.95,539.52 842.85,540.08 844.70,541.07 845.51,542.48 845.28,544.32"/>
    </edge>
    <edge id=":694207_2" function="internal">
        <lane id=":694207_2_0" index="0" disallow="tram rail_urban rail rail_electric rail_fast ship" speed="6.75" length="8.31" shape="842.28,543.22 843.19,541.79 844.71,540.90 846.82,540.54 849.52,540.72"/>
    </edge>
    <edge id=":694207_3" function="internal">
        <lane id=":694207_3_0" index="0" disallow="tram rail_urban rail rail_electric rail_fast ship" speed="3.65" length="4.67" shape="842.28,543.22 843.44,542.37 844.33,542.27 844.94,542.92 845.28,544.32"/>
    </edge>
    <edge id=":7294734_0" function="internal">
        <lane id=":7294734_0_0" index="0" disallow="tram rail_urban rail rail_electric rail_fast ship" speed="13.89" length="0.26" shape="396.09,484.74 396.34,484.79"/>
    </edge>
    <edge id=":7507510750_0" function="internal">
        <lane id=":7507510750_0_0" index="0" disallow="tram rail_urban rail rail_electric rail_fast ship" speed="13.89" length="0.30" shape="121.07,365.40 121.33,365.25"/>
        <lane id=":7507510750_0_1" index="1" disallow="tram rail_urban rail rail_electric rail_fast ship" speed="13.89" length="0.30" shape="122.65,368.19 122.91,368.04"/>
    </edge>
    <edge id=":cluster_46818140_67829241_0" function="internal">
        <lane id=":cluster_46818140_67829241_0_0" index="0" disallow="tram rail_urban rail rail_electric rail_fast ship" speed="8.33" length="20.90" shape="599.30,611.96 597.39,591.14"/>
    </edge>
    <edge id=":cluster_46818140_67829241_1" function="internal">
        <lane id=":cluster_46818140_67829241_1_0" index="0" disallow="tram rail_urban rail rail_electric rail_fast ship" speed="8.12" length="10.08" shape="599.30,611.96 599.27,604.55 599.99,601.98"/>
    </edge>
    <edge id=":cluster_46818140_67829241_2" function="internal">
        <lane id=":cluster_46818140_67829241_2_0" index="0" disallow="tram rail_urban rail rail_electric rail_fast ship" speed="3.65" length="2.34" shape="599.30,611.96 600.00,610.70 600.76,610.24"/>
    </edge>
    <edge id=":cluster_46818140_67829241_9" function="internal">
        <lane id=":cluster_46818140_67829241_9_0" index="0" disallow="tram rail_urban rail rail_electric rail_fast ship" speed="8.12" length="9.75" shape="599.99,601.98 600.60,599.79 603.29,597.70 607.32,598.27"/>
    </edge>
    <edge id=":cluster_46818140_67829241_10" function="internal">
        <lane id=":cluster_46818140_67829241_10_0" index="0" disallow="tram rail_urban rail rail_electric rail_fast ship" speed="3.65" length="2.34" shape="600.76,610.24 601.59,610.57 602.49,611.70"/>
    </edge>
    <edge id=":cluster_46818140_67829241_3" function="internal">