<?xml version="1.0" encoding="UTF-8"?>

<!-- generated on 2022-05-12 10:06:58 by Eclipse SUMO netconvert Version 1.9.2
<configuration xmlns:xsi="http://www.w3.org/2001/XMLSchema-instance" xsi:noNamespaceSchemaLocation="http://sumo.dlr.de/xsd/netconvertConfiguration.xsd">

    <input>
        <sumo-net-file value="\\wsl$\Ubuntu\home\svadlmat\UTC\Project/Maps/sumo/Chodov.net.xml"/>
    </input>

    <output>
        <output-file value="\\wsl$\Ubuntu\home\svadlmat\UTC\Project/Maps/sumo/test2.net.xml"/>
    </output>

    <processing>
        <geometry.min-radius.fix.railways value="false"/>
        <geometry.max-grade.fix value="false"/>
        <offset.disable-normalization value="true"/>
        <lefthand value="false"/>
    </processing>

    <edge_removal>
        <keep-edges.explicit value="38,9,159,76,132,56,77,148,181,43,86,137,164,163,180,40,82,153,124,103,179,7,91,74,166,135,133,44,6,108,107,8,170,147,144,83,88,105,106,39,67,3,146,75,136,167,41,84,85,145,125,158,4,60,160,102,169,48,162,161,168,79,47,154,101,171,51,42,87,81,157"/>
    </edge_removal>

    <junctions>
        <no-turnarounds value="true"/>
        <junctions.corner-detail value="5"/>
        <junctions.limit-turn-speed value="5.5"/>
        <rectangular-lane-cut value="false"/>
    </junctions>

    <pedestrian>
        <walkingareas value="false"/>
    </pedestrian>

    <report>
        <aggregate-warnings value="5"/>
    </report>

</configuration>
-->

<net version="1.9" junctionCornerDetail="5" limitTurnSpeed="5.50" xmlns:xsi="http://www.w3.org/2001/XMLSchema-instance" xsi:noNamespaceSchemaLocation="http://sumo.dlr.de/xsd/net_file.xsd">

    <location netOffset="-464172.98,-5542009.12" convBoundary="21.99,151.05,844.57,957.18" origBoundary="14.498404,50.026590,14.520810,50.038591" projParameter="+proj=utm +zone=33 +ellps=WGS84 +datum=WGS84 +units=m +no_defs"/>

    <type id="highway.bridleway" priority="1" numLanes="1" speed="2.78" allow="pedestrian" oneway="1" width="2.00"/>
    <type id="highway.bus_guideway" priority="1" numLanes="1" speed="27.78" allow="bus" oneway="1"/>
    <type id="highway.cycleway" priority="1" numLanes="1" speed="8.33" allow="bicycle" oneway="0" width="1.00"/>
    <type id="highway.footway" priority="1" numLanes="1" speed="2.78" allow="pedestrian" oneway="1" width="2.00"/>
    <type id="highway.ford" priority="1" numLanes="1" speed="2.78" allow="army" oneway="0"/>
    <type id="highway.living_street" priority="2" numLanes="1" speed="2.78" disallow="tram rail_urban rail rail_electric rail_fast ship" oneway="0"/>
    <type id="highway.motorway" priority="14" numLanes="2" speed="39.44" allow="private emergency authority army vip passenger hov taxi bus coach delivery truck trailer motorcycle evehicle custom1 custom2" oneway="1"/>
    <type id="highway.motorway_link" priority="9" numLanes="1" speed="22.22" allow="private emergency authority army vip passenger hov taxi bus coach delivery truck trailer motorcycle evehicle custom1 custom2" oneway="1"/>
    <type id="highway.path" priority="1" numLanes="1" speed="2.78" allow="pedestrian bicycle" oneway="0" width="2.00"/>
    <type id="highway.pedestrian" priority="1" numLanes="1" speed="2.78" allow="pedestrian" oneway="1" width="2.00"/>
    <type id="highway.primary" priority="12" numLanes="2" speed="27.78" disallow="tram rail_urban rail rail_electric rail_fast ship" oneway="0"/>
    <type id="highway.primary_link" priority="7" numLanes="1" speed="22.22" disallow="tram rail_urban rail rail_electric rail_fast ship" oneway="0"/>
    <type id="highway.raceway" priority="15" numLanes="2" speed="83.33" allow="vip" oneway="0"/>
    <type id="highway.residential" priority="3" numLanes="1" speed="13.89" disallow="tram rail_urban rail rail_electric rail_fast ship" oneway="0"/>
    <type id="highway.secondary" priority="11" numLanes="1" speed="27.78" disallow="tram rail_urban rail rail_electric rail_fast ship" oneway="0"/>
    <type id="highway.secondary_link" priority="6" numLanes="1" speed="22.22" disallow="tram rail_urban rail rail_electric rail_fast ship" oneway="0"/>
    <type id="highway.service" priority="1" numLanes="1" speed="5.56" allow="pedestrian delivery bicycle" oneway="0"/>
    <type id="highway.stairs" priority="1" numLanes="1" speed="1.39" allow="pedestrian" oneway="1" width="2.00"/>
    <type id="highway.step" priority="1" numLanes="1" speed="1.39" allow="pedestrian" oneway="1" width="2.00"/>
    <type id="highway.steps" priority="1" numLanes="1" speed="1.39" allow="pedestrian" oneway="1" width="2.00"/>
    <type id="highway.tertiary" priority="10" numLanes="1" speed="22.22" disallow="tram rail_urban rail rail_electric rail_fast ship" oneway="0"/>
    <type id="highway.tertiary_link" priority="5" numLanes="1" speed="22.22" disallow="tram rail_urban rail rail_electric rail_fast ship" oneway="0"/>
    <type id="highway.track" priority="1" numLanes="1" speed="5.56" allow="pedestrian motorcycle moped bicycle" oneway="0"/>
    <type id="highway.trunk" priority="13" numLanes="2" speed="27.78" disallow="pedestrian bicycle tram rail_urban rail rail_electric rail_fast ship" oneway="0"/>
    <type id="highway.trunk_link" priority="8" numLanes="1" speed="22.22" disallow="pedestrian bicycle tram rail_urban rail rail_electric rail_fast ship" oneway="0"/>
    <type id="highway.unclassified" priority="4" numLanes="1" speed="13.89" disallow="tram rail_urban rail rail_electric rail_fast ship" oneway="0"/>
    <type id="highway.unsurfaced" priority="1" numLanes="1" speed="8.33" disallow="tram rail_urban rail rail_electric rail_fast ship" oneway="0"/>
    <type id="railway.highspeed" priority="21" numLanes="1" speed="69.44" allow="rail_fast" oneway="1"/>
    <type id="railway.light_rail" priority="19" numLanes="1" speed="27.78" allow="rail_urban" oneway="1"/>
    <type id="railway.preserved" priority="16" numLanes="1" speed="27.78" allow="rail" oneway="1"/>
    <type id="railway.rail" priority="20" numLanes="1" speed="44.44" allow="rail" oneway="1"/>
    <type id="railway.subway" priority="18" numLanes="1" speed="27.78" allow="rail_urban" oneway="1"/>
    <type id="railway.tram" priority="17" numLanes="1" speed="13.89" allow="tram" oneway="1"/>

    <edge id=":15_0" function="internal">
        <lane id=":15_0_0" index="0" disallow="tram rail_urban rail rail_electric rail_fast ship" speed="13.89" length="3.10" shape="737.41,532.09 740.50,532.30"/>
    </edge>
    <edge id=":18_0" function="internal">
        <lane id=":18_0_0" index="0" disallow="tram rail_urban rail rail_electric rail_fast ship" speed="13.89" length="0.10" shape="579.65,434.82 579.67,434.91"/>
    </edge>
    <edge id=":2_0" function="internal">
        <lane id=":2_0_0" index="0" disallow="tram rail_urban rail rail_electric rail_fast ship" speed="13.89" length="0.10" shape="545.41,288.29 545.43,288.37"/>
    </edge>
    <edge id=":23_0" function="internal">
        <lane id=":23_0_0" index="0" disallow="tram rail_urban rail rail_electric rail_fast ship" speed="6.58" length="8.58" shape="348.24,476.49 345.98,476.22 344.09,476.72 342.59,478.01 341.47,480.09"/>
    </edge>
    <edge id=":23_1" function="internal">
        <lane id=":23_1_0" index="0" disallow="tram rail_urban rail rail_electric rail_fast ship" speed="13.89" length="10.37" shape="348.24,476.49 338.34,473.43"/>
    </edge>
    <edge id=":23_2" function="internal">
        <lane id=":23_2_0" index="0" disallow="tram rail_urban rail rail_electric rail_fast ship" speed="3.65" length="2.34" shape="348.24,476.49 347.30,475.41 347.12,474.53"/>
    </edge>
    <edge id=":23_6" function="internal">
        <lane id=":23_6_0" index="0" disallow="tram rail_urban rail rail_electric rail_fast ship" speed="3.65" length="2.34" shape="347.12,474.53 347.72,473.86 349.09,473.41"/>
    </edge>
    <edge id=":23_3" function="internal">
        <lane id=":23_3_0" index="0" disallow="tram rail_urban rail rail_electric rail_fast ship" speed="13.89" length="10.16" shape="339.38,470.40 349.09,473.41"/>
    </edge>
    <edge id=":23_4" function="internal">
        <lane id=":23_4_0" index="0" disallow="tram rail_urban rail rail_electric rail_fast ship" speed="7.10" length="3.78" shape="339.38,470.40 341.42,471.66 342.04,472.90"/>
    </edge>
    <edge id=":23_5" function="internal">
        <lane id=":23_5_0" index="0" disallow="tram rail_urban rail rail_electric rail_fast ship" speed="3.65" length="2.34" shape="339.38,470.40 340.25,471.55 340.37,472.44"/>
    </edge>
    <edge id=":23_7" function="internal">
        <lane id=":23_7_0" index="0" disallow="tram rail_urban rail rail_electric rail_fast ship" speed="7.10" length="7.42" shape="342.04,472.90 342.44,473.70 342.46,476.51 341.47,480.09"/>
    </edge>
    <edge id=":23_8" function="internal">
        <lane id=":23_8_0" index="0" disallow="tram rail_urban rail rail_electric rail_fast ship" speed="3.65" length="2.34" shape="340.37,472.44 339.73,473.06 338.34,473.43"/>
    </edge>
    <edge id=":32_0" function="internal">
        <lane id=":32_0_0" index="0" disallow="tram rail_urban rail rail_electric rail_fast ship" speed="13.89" length="7.54" shape="558.77,238.32 557.03,239.72 555.62,240.42 554.27,241.17 552.71,242.71"/>
    </edge>
    <edge id=":38_0" function="internal">
        <lane id=":38_0_0" index="0" disallow="tram rail_urban rail rail_electric rail_fast ship" speed="6.51" length="8.85" shape="548.90,681.24 546.48,681.25 544.63,682.03 543.34,683.57 542.62,685.88"/>
    </edge>
    <edge id=":38_1" function="internal">
        <lane id=":38_1_0" index="0" disallow="tram rail_urban rail rail_electric rail_fast ship" speed="3.65" length="2.34" shape="548.90,681.24 547.81,680.28 547.52,679.44"/>
    </edge>
    <edge id=":38_4" function="internal">
        <lane id=":38_4_0" index="0" disallow="tram rail_urban rail rail_electric rail_fast ship" speed="3.65" length="2.34" shape="547.52,679.44 548.03,678.70 549.33,678.07"/>
    </edge>
    <edge id=":38_2" function="internal">
        <lane id=":38_2_0" index="0" disallow="tram rail_urban rail rail_electric rail_fast ship" speed="13.89" length="10.93" shape="538.48,676.70 549.33,678.07"/>
    </edge>
    <edge id=":38_3" function="internal">
        <lane id=":38_3_0" index="0" disallow="tram rail_urban rail rail_electric rail_fast ship" speed="7.12" length="7.27" shape="538.48,676.70 540.81,677.50 542.28,679.30 542.80,681.72"/>
    </edge>
    <edge id=":38_5" function="internal">
        <lane id=":38_5_0" index="0" disallow="tram rail_urban rail rail_electric rail_fast ship" speed="7.12" length="4.18" shape="542.80,681.72 542.88,682.09 542.62,685.88"/>
    </edge>
    <edge id=":39_0" function="internal">
        <lane id=":39_0_0" index="0" disallow="tram rail_urban rail rail_electric rail_fast ship" speed="13.89" length="9.41" shape="693.04,684.64 686.05,690.94"/>
    </edge>
    <edge id=":39_1" function="internal">
        <lane id=":39_1_0" index="0" disallow="tram rail_urban rail rail_electric rail_fast ship" speed="6.11" length="7.78" shape="693.04,684.64 690.87,686.34 689.01,687.23 687.48,687.30 686.26,686.56"/>
    </edge>
    <edge id=":39_2" function="internal">
        <lane id=":39_2_0" index="0" disallow="tram rail_urban rail rail_electric rail_fast ship" speed="6.07" length="1.14" shape="688.61,684.39 689.12,685.40"/>
    </edge>
    <edge id=":39_3" function="internal">
        <lane id=":39_3_0" index="0" disallow="tram rail_urban rail rail_electric rail_fast ship" speed="3.65" length="1.18" shape="688.61,684.39 688.79,685.56"/>
    </edge>
    <edge id=":39_4" function="internal">
        <lane id=":39_4_0" index="0" disallow="tram rail_urban rail rail_electric rail_fast ship" speed="6.07" length="6.66" shape="689.12,685.40 689.25,685.67 689.04,687.19 687.97,688.95 686.05,690.94"/>
    </edge>
    <edge id=":39_5" function="internal">
        <lane id=":39_5_0" index="0" disallow="tram rail_urban rail rail_electric rail_fast ship" speed="3.65" length="3.49" shape="688.79,685.56 688.83,685.81 688.52,686.65 687.66,686.90 686.26,686.56"/>
    </edge>
    <edge id=":40_0" function="internal">
        <lane id=":40_0_0" index="0" disallow="tram rail_urban rail rail_electric rail_fast ship" speed="9.12" length="11.80" shape="608.85,701.44 607.94,699.16 606.19,697.21 603.60,695.58 600.17,694.27"/>
    </edge>
    <edge id=":40_1" function="internal">
        <lane id=":40_1_0" index="0" disallow="tram rail_urban rail rail_electric rail_fast ship" speed="8.33" length="15.02" shape="608.85,701.44 606.38,686.62"/>
    </edge>
    <edge id=":40_2" function="internal">
        <lane id=":40_2_0" index="0" disallow="tram rail_urban rail rail_electric rail_fast ship" speed="7.45" length="6.18" shape="609.54,686.16 609.58,690.94 608.92,692.18"/>
    </edge>
    <edge id=":40_3" function="internal">
        <lane id=":40_3_0" index="0" disallow="tram rail_urban rail rail_electric rail_fast ship" speed="3.65" length="2.34" shape="609.54,686.16 608.92,687.47 608.19,687.98"/>
    </edge>
    <edge id=":40_6" function="internal">
        <lane id=":40_6_0" index="0" disallow="tram rail_urban rail rail_electric rail_fast ship" speed="7.45" length="10.03" shape="608.92,692.18 608.03,693.89 604.89,695.00 600.17,694.27"/>
    </edge>
    <edge id=":40_7" function="internal">
        <lane id=":40_7_0" index="0" disallow="tram rail_urban rail rail_electric rail_fast ship" speed="3.65" length="2.34" shape="608.19,687.98 607.34,687.70 606.38,686.62"/>
    </edge>
    <edge id=":40_4" function="internal">
        <lane id=":40_4_0" index="0" disallow="tram rail_urban rail rail_electric rail_fast ship" speed="5.77" length="9.16" shape="601.08,691.21 603.75,691.62 605.52,690.99 606.40,689.32 606.38,686.62"/>
    </edge>
    <edge id=":40_5" function="internal">
        <lane id=":40_5_0" index="0" disallow="tram rail_urban rail rail_electric rail_fast ship" speed="3.65" length="4.67" shape="601.08,691.21 602.00,692.32 602.16,693.20 601.55,693.85 600.17,694.27"/>
    </edge>
    <edge id=":41_0" function="internal">
        <lane id=":41_0_0" index="0" disallow="tram rail_urban rail rail_electric rail_fast ship" speed="6.21" length="9.05" shape="106.11,682.95 105.51,685.41 105.90,687.36 107.27,688.80 109.63,689.74"/>
    </edge>
    <edge id=":41_1" function="internal">
        <lane id=":41_1_0" index="0" disallow="tram rail_urban rail rail_electric rail_fast ship" speed="3.65" length="2.34" shape="106.11,682.95 104.92,683.76 104.03,683.84"/>
    </edge>
    <edge id=":41_4" function="internal">
        <lane id=":41_4_0" index="0" disallow="tram rail_urban rail rail_electric rail_fast ship" speed="3.65" length="2.34" shape="104.03,683.84 103.43,683.17 103.14,681.76"/>
    </edge>
    <edge id=":41_2" function="internal">
        <lane id=":41_2_0" index="0" disallow="tram rail_urban rail rail_electric rail_fast ship" speed="13.89" length="11.79" shape="98.95,692.78 103.14,681.76"/>
    </edge>
    <edge id=":41_3" function="internal">
        <lane id=":41_3_0" index="0" disallow="tram rail_urban rail rail_electric rail_fast ship" speed="7.73" length="7.95" shape="98.95,692.78 100.28,690.65 102.50,689.44 105.40,689.15"/>
    </edge>
    <edge id=":41_5" function="internal">
        <lane id=":41_5_0" index="0" disallow="tram rail_urban rail rail_electric rail_fast ship" speed="7.73" length="4.28" shape="105.40,689.15 105.62,689.13 109.63,689.74"/>
    </edge>
    <edge id=":42_0" function="internal">
        <lane id=":42_0_0" index="0" disallow="tram rail_urban rail rail_electric rail_fast ship" speed="13.89" length="10.76" shape="138.72,620.80 132.91,629.86"/>
    </edge>
    <edge id=":42_1" function="internal">
        <lane id=":42_1_0" index="0" disallow="tram rail_urban rail rail_electric rail_fast ship" speed="3.65" length="2.34" shape="138.72,620.80 137.38,621.34 136.50,621.22"/>
    </edge>
    <edge id=":42_6" function="internal">
        <lane id=":42_6_0" index="0" disallow="tram rail_urban rail rail_electric rail_fast ship" speed="3.65" length="2.34" shape="136.50,621.22 136.06,620.44 136.08,619.00"/>
    </edge>
    <edge id=":42_2" function="internal">
        <lane id=":42_2_0" index="0" disallow="tram rail_urban rail rail_electric rail_fast ship" speed="6.93" length="8.58" shape="128.36,620.55 130.81,621.23 132.91,621.19 134.67,620.45 136.08,619.00"/>
    </edge>
    <edge id=":42_3" function="internal">
        <lane id=":42_3_0" index="0" disallow="tram rail_urban rail rail_electric rail_fast ship" speed="7.08" length="12.26" shape="128.36,620.55 131.72,622.34 133.60,624.48 134.00,626.99 132.91,629.86"/>
    </edge>
    <edge id=":42_4" function="internal">
        <lane id=":42_4_0" index="0" disallow="tram rail_urban rail rail_electric rail_fast ship" speed="13.89" length="10.95" shape="130.17,628.21 136.08,619.00"/>
    </edge>
    <edge id=":42_5" function="internal">
        <lane id=":42_5_0" index="0" disallow="tram rail_urban rail rail_electric rail_fast ship" speed="3.65" length="2.34" shape="130.17,628.21 131.47,627.60 132.36,627.66"/>
    </edge>
    <edge id=":42_7" function="internal">
        <lane id=":42_7_0" index="0" disallow="tram rail_urban rail rail_electric rail_fast ship" speed="3.65" length="2.34" shape="132.36,627.66 132.84,628.42 132.91,629.86"/>
    </edge>
    <edge id=":43_0" function="internal">
        <lane id=":43_0_0" index="0" disallow="tram rail_urban rail rail_electric rail_fast ship" speed="7.02" length="8.93" shape="162.31,595.79 159.92,595.15 157.81,595.29 155.98,596.20 154.42,597.89"/>
    </edge>
    <edge id=":43_1" function="internal">
        <lane id=":43_1_0" index="0" disallow="tram rail_urban rail rail_electric rail_fast ship" speed="8.01" length="13.52" shape="162.31,595.79 159.13,593.95 157.23,591.51 156.61,588.49 157.27,584.87"/>
    </edge>
    <edge id=":43_2" function="internal">
        <lane id=":43_2_0" index="0" disallow="tram rail_urban rail rail_electric rail_fast ship" speed="3.65" length="4.67" shape="162.31,595.79 161.50,594.60 161.43,593.71 162.10,593.12 163.51,592.83"/>
    </edge>
    <edge id=":43_3" function="internal">
        <lane id=":43_3_0" index="0" disallow="tram rail_urban rail rail_electric rail_fast ship" speed="6.52" length="8.60" shape="160.31,585.88 159.89,588.18 160.29,590.10 161.49,591.65 163.51,592.83"/>
    </edge>
    <edge id=":43_4" function="internal">
        <lane id=":43_4_0" index="0" disallow="tram rail_urban rail rail_electric rail_fast ship" speed="13.89" length="13.43" shape="160.31,585.88 159.12,589.18 157.83,592.12 156.31,594.94 154.42,597.89"/>
    </edge>
    <edge id=":43_5" function="internal">
        <lane id=":43_5_0" index="0" disallow="tram rail_urban rail rail_electric rail_fast ship" speed="3.65" length="2.34" shape="160.31,585.88 159.17,586.77 158.29,586.89"/>
    </edge>
    <edge id=":43_9" function="internal">
        <lane id=":43_9_0" index="0" disallow="tram rail_urban rail rail_electric rail_fast ship" speed="3.65" length="2.34" shape="158.29,586.89 157.65,586.26 157.27,584.87"/>
    </edge>
    <edge id=":43_6" function="internal">
        <lane id=":43_6_0" index="0" disallow="tram rail_urban rail rail_electric rail_fast ship" speed="13.89" length="12.54" shape="151.78,596.08 153.61,593.26 154.99,590.71 156.15,588.05 157.27,584.87"/>
    </edge>
    <edge id=":43_7" function="internal">
        <lane id=":43_7_0" index="0" disallow="tram rail_urban rail rail_electric rail_fast ship" speed="8.45" length="5.22" shape="151.78,596.08 154.12,593.52 155.68,592.73"/>
    </edge>
    <edge id=":43_8" function="internal">
        <lane id=":43_8_0" index="0" disallow="tram rail_urban rail rail_electric rail_fast ship" speed="3.65" length="2.34" shape="151.78,596.08 153.12,595.54 154.00,595.67"/>
    </edge>
    <edge id=":43_10" function="internal">
        <lane id=":43_10_0" index="0" disallow="tram rail_urban rail rail_electric rail_fast ship" speed="8.45" length="8.10" shape="155.68,592.73 156.86,592.13 159.99,591.90 163.51,592.83"/>
    </edge>
    <edge id=":43_11" function="internal">
        <lane id=":43_11_0" index="0" disallow="tram rail_urban rail rail_electric rail_fast ship" speed="3.65" length="2.34" shape="154.00,595.67 154.44,596.45 154.42,597.89"/>
    </edge>
    <edge id=":44_0" function="internal">
        <lane id=":44_0_0" index="0" disallow="tram rail_urban rail rail_electric rail_fast ship" speed="6.84" length="10.32" shape="191.32,511.48 188.87,510.99 186.77,511.61 185.01,513.33 183.60,516.17"/>
    </edge>
    <edge id=":44_1" function="internal">
        <lane id=":44_1_0" index="0" disallow="tram rail_urban rail rail_electric rail_fast ship" speed="13.89" length="14.58" shape="191.32,511.48 187.82,510.38 184.29,509.63 180.75,508.93 177.19,507.96"/>
    </edge>
    <edge id=":44_2" function="internal">
        <lane id=":44_2_0" index="0" disallow="tram rail_urban rail rail_electric rail_fast ship" speed="7.47" length="11.75" shape="191.32,511.48 187.83,509.73 185.59,507.75 184.59,505.55 184.83,503.13"/>
    </edge>
    <edge id=":44_3" function="internal">
        <lane id=":44_3_0" index="0" disallow="tram rail_urban rail rail_electric rail_fast ship" speed="13.89" length="12.74" shape="187.86,504.16 183.60,516.17"/>
    </edge>
    <edge id=":44_4" function="internal">
        <lane id=":44_4_0" index="0" disallow="tram rail_urban rail rail_electric rail_fast ship" speed="7.65" length="4.95" shape="187.86,504.16 186.34,506.90 184.83,507.92"/>
    </edge>
    <edge id=":44_5" function="internal">
        <lane id=":44_5_0" index="0" disallow="tram rail_urban rail rail_electric rail_fast ship" speed="3.65" length="2.34" shape="187.86,504.16 186.72,505.04 185.83,505.16"/>
    </edge>
    <edge id=":44_9" function="internal">
        <lane id=":44_9_0" index="0" disallow="tram rail_urban rail rail_electric rail_fast ship" speed="7.65" length="7.91" shape="184.83,507.92 184.06,508.44 181.01,508.79 177.19,507.96"/>
    </edge>
    <edge id=":44_10" function="internal">
        <lane id=":44_10_0" index="0" disallow="tram rail_urban rail rail_electric rail_fast ship" speed="3.65" length="2.34" shape="185.83,505.16 185.20,504.52 184.83,503.13"/>
    </edge>
    <edge id=":44_6" function="internal">
        <lane id=":44_6_0" index="0" disallow="tram rail_urban rail rail_electric rail_fast ship" speed="6.46" length="9.03" shape="180.60,515.07 181.11,512.64 180.71,510.65 179.41,509.08 177.19,507.96"/>
    </edge>
    <edge id=":44_7" function="internal">
        <lane id=":44_7_0" index="0" disallow="tram rail_urban rail rail_electric rail_fast ship" speed="13.89" length="12.67" shape="180.60,515.07 184.83,503.13"/>
    </edge>
    <edge id=":44_8" function="internal">
        <lane id=":44_8_0" index="0" disallow="tram rail_urban rail rail_electric rail_fast ship" speed="3.65" length="2.34" shape="180.60,515.07 181.76,514.22 182.65,514.12"/>
    </edge>
    <edge id=":44_11" function="internal">
        <lane id=":44_11_0" index="0" disallow="tram rail_urban rail rail_electric rail_fast ship" speed="3.65" length="2.34" shape="182.65,514.12 183.26,514.77 183.60,516.17"/>
    </edge>
    <edge id=":45_0" function="internal">
        <lane id=":45_0_0" index="0" disallow="tram rail_urban rail rail_electric rail_fast ship" speed="6.51" length="9.03" shape="218.38,432.17 215.94,431.71 213.95,432.14 212.39,433.46 211.27,435.66"/>
    </edge>
    <edge id=":45_1" function="internal">
        <lane id=":45_1_0" index="0" disallow="tram rail_urban rail rail_electric rail_fast ship" speed="3.65" length="2.34" shape="218.38,432.17 217.50,431.03 217.38,430.14"/>
    </edge>
    <edge id=":45_6" function="internal">
        <lane id=":45_6_0" index="0" disallow="tram rail_urban rail rail_electric rail_fast ship" speed="3.65" length="2.34" shape="217.38,430.14 218.02,429.51 219.41,429.14"/>
    </edge>
    <edge id=":45_2" function="internal">
        <lane id=":45_2_0" index="0" disallow="tram rail_urban rail rail_electric rail_fast ship" speed="13.89" length="14.35" shape="205.89,424.32 219.41,429.14"/>
    </edge>
    <edge id=":45_3" function="internal">
        <lane id=":45_3_0" index="0" disallow="tram rail_urban rail rail_electric rail_fast ship" speed="8.09" length="10.21" shape="205.89,424.32 209.31,426.17 211.34,428.68 211.97,431.72"/>
    </edge>
    <edge id=":45_7" function="internal">
        <lane id=":45_7_0" index="0" disallow="tram rail_urban rail rail_electric rail_fast ship" speed="8.09" length="4.01" shape="211.97,431.72 211.99,431.84 211.27,435.66"/>
    </edge>
    <edge id=":45_4" function="internal">
        <lane id=":45_4_0" index="0" disallow="tram rail_urban rail rail_electric rail_fast ship" speed="8.00" length="14.19" shape="208.24,434.63 210.00,431.16 212.45,429.09 215.59,428.42 219.41,429.14"/>
    </edge>
    <edge id=":45_5" function="internal">
        <lane id=":45_5_0" index="0" disallow="tram rail_urban rail rail_electric rail_fast ship" speed="3.65" length="4.67" shape="208.24,434.63 209.38,433.75 210.27,433.63 210.90,434.27 211.27,435.66"/>
    </edge>
    <edge id=":46_0" function="internal">
        <lane id=":46_0_0" index="0" disallow="tram rail_urban rail rail_electric rail_fast ship" speed="6.49" length="9.03" shape="118.93,488.07 116.49,487.61 114.50,488.04 112.95,489.37 111.85,491.59"/>
    </edge>
    <edge id=":46_1" function="internal">
        <lane id=":46_1_0" index="0" disallow="tram rail_urban rail rail_electric rail_fast ship" speed="13.89" length="11.18" shape="118.93,488.07 108.37,484.39"/>
    </edge>
    <edge id=":47_0" function="internal">
        <lane id=":47_0_0" index="0" disallow="tram rail_urban rail rail_electric rail_fast ship" speed="13.89" length="10.89" shape="318.05,557.00 307.68,553.64"/>
    </edge>
    <edge id=":47_1" function="internal">
        <lane id=":47_1_0" index="0" disallow="tram rail_urban rail rail_electric rail_fast ship" speed="6.56" length="4.19" shape="314.74,550.17 313.56,552.33 312.22,553.43"/>
    </edge>
    <edge id=":47_2" function="internal">
        <lane id=":47_2_0" index="0" disallow="tram rail_urban rail rail_electric rail_fast ship" speed="6.56" length="4.70" shape="312.22,553.43 311.99,553.62 310.03,554.06 307.68,553.64"/>
    </edge>
    <edge id=":48_0" function="internal">
        <lane id=":48_0_0" index="0" disallow="tram rail_urban rail rail_electric rail_fast ship" speed="6.51" length="9.02" shape="380.91,576.72 378.47,576.33 376.49,576.82 374.97,578.18 373.91,580.42"/>
    </edge>
    <edge id=":48_1" function="internal">
        <lane id=":48_1_0" index="0" disallow="tram rail_urban rail rail_electric rail_fast ship" speed="13.89" length="11.18" shape="380.91,576.72 370.23,573.41"/>
    </edge>
    <edge id=":49_0" function="internal">
        <lane id=":49_0_0" index="0" disallow="tram rail_urban rail rail_electric rail_fast ship" speed="6.98" length="9.81" shape="418.48,589.12 415.63,588.91 413.38,589.51 411.73,590.91 410.66,593.13"/>
    </edge>
    <edge id=":49_1" function="internal">
        <lane id=":49_1_0" index="0" disallow="tram rail_urban rail rail_electric rail_fast ship" speed="13.89" length="15.19" shape="418.48,589.12 414.85,588.11 411.30,586.71 407.77,585.22 404.22,583.92"/>
    </edge>
    <edge id=":49_2" function="internal">
        <lane id=":49_2_0" index="0" disallow="tram rail_urban rail rail_electric rail_fast ship" speed="7.71" length="14.94" shape="418.48,589.12 414.50,587.73 412.18,585.44 411.51,582.25 412.49,578.15"/>
    </edge>
    <edge id=":49_3" function="internal">
        <lane id=":49_3_0" index="0" disallow="tram rail_urban rail rail_electric rail_fast ship" speed="3.65" length="4.67" shape="418.48,589.12 417.45,588.11 417.21,587.24 417.76,586.54 419.09,585.98"/>
    </edge>
    <edge id=":49_4" function="internal">
        <lane id=":49_4_0" index="0" disallow="tram rail_urban rail rail_electric rail_fast ship" speed="6.14" length="9.06" shape="415.46,579.33 414.87,581.81 415.28,583.75 416.69,585.14 419.09,585.98"/>
    </edge>
    <edge id=":49_5" function="internal">
        <lane id=":49_5_0" index="0" disallow="tram rail_urban rail rail_electric rail_fast ship" speed="13.89" length="14.61" shape="415.46,579.33 414.13,582.77 412.90,586.17 411.75,589.60 410.66,593.13"/>
    </edge>
    <edge id=":49_6" function="internal">
        <lane id=":49_6_0" index="0" disallow="tram rail_urban rail rail_electric rail_fast ship" speed="8.08" length="5.27" shape="415.46,579.33 413.69,582.31 412.22,583.36"/>
    </edge>
    <edge id=":49_7" function="internal">
        <lane id=":49_7_0" index="0" disallow="tram rail_urban rail rail_electric rail_fast ship" speed="3.65" length="2.34" shape="415.46,579.33 414.28,580.15 413.39,580.23"/>
    </edge>
    <edge id=":49_12" function="internal">
        <lane id=":49_12_0" index="0" disallow="tram rail_urban rail rail_electric rail_fast ship" speed="8.08" length="8.33" shape="412.22,583.36 411.23,584.07 408.07,584.61 404.22,583.92"/>
    </edge>
    <edge id=":49_13" function="internal">
        <lane id=":49_13_0" index="0" disallow="tram rail_urban rail rail_electric rail_fast ship" speed="3.65" length="2.34" shape="413.39,580.23 412.79,579.56 412.49,578.15"/>
    </edge>
    <edge id=":49_8" function="internal">
        <lane id=":49_8_0" index="0" disallow="tram rail_urban rail rail_electric rail_fast ship" speed="6.89" length="10.15" shape="407.59,592.22 408.11,589.21 407.73,586.82 406.43,585.06 404.22,583.92"/>
    </edge>
    <edge id=":49_9" function="internal">
        <lane id=":49_9_0" index="0" disallow="tram rail_urban rail rail_electric rail_fast ship" speed="13.89" length="14.90" shape="407.59,592.22 408.69,588.65 409.88,585.13 411.15,581.64 412.49,578.15"/>
    </edge>
    <edge id=":49_10" function="internal">
        <lane id=":49_10_0" index="0" disallow="tram rail_urban rail rail_electric rail_fast ship" speed="8.40" length="5.90" shape="407.59,592.22 409.20,588.82 410.80,587.40"/>
    </edge>