<?xml version="1.0" encoding="UTF-8"?>

<!-- generated on 2022-04-12 18:24:35 by Eclipse SUMO netconvert Version 1.9.2
<configuration xmlns:xsi="http://www.w3.org/2001/XMLSchema-instance" xsi:noNamespaceSchemaLocation="http://sumo.dlr.de/xsd/netconvertConfiguration.xsd">

    <input>
        <sumo-net-file value="\\wsl$\Ubuntu\home\svadlmat\UTC\Project/Maps/sumo/Chodov.net.xml"/>
    </input>

    <output>
        <output-file value="\\wsl$\Ubuntu\home\svadlmat\UTC\Project/Maps/sumo/test.net.xml"/>
    </output>

    <processing>
        <geometry.min-radius.fix.railways value="false"/>
        <geometry.max-grade.fix value="false"/>
        <offset.disable-normalization value="true"/>
        <lefthand value="false"/>
    </processing>

    <edge_removal>
        <keep-edges.explicit value="56,87,133,85,47,84,163,132,8,55,144,75,88,164,86,43,169,7,159,165,168,145,162,6,9,153"/>
    </edge_removal>

    <junctions>
        <no-turnarounds value="true"/>
        <junctions.corner-detail value="5"/>
        <junctions.limit-turn-speed value="5.5"/>
        <rectangular-lane-cut value="false"/>
    </junctions>

    <pedestrian>
        <walkingareas value="false"/>
    </pedestrian>

    <report>
        <aggregate-warnings value="5"/>
    </report>

</configuration>
-->

<net version="1.9" junctionCornerDetail="5" limitTurnSpeed="5.50" xmlns:xsi="http://www.w3.org/2001/XMLSchema-instance" xsi:noNamespaceSchemaLocation="http://sumo.dlr.de/xsd/net_file.xsd">

    <location netOffset="-464172.98,-5542009.12" convBoundary="21.99,317.64,524.96,957.18" origBoundary="14.498404,50.026590,14.520810,50.038591" projParameter="+proj=utm +zone=33 +ellps=WGS84 +datum=WGS84 +units=m +no_defs"/>

    <type id="highway.bridleway" priority="1" numLanes="1" speed="2.78" allow="pedestrian" oneway="1" width="2.00"/>
    <type id="highway.bus_guideway" priority="1" numLanes="1" speed="27.78" allow="bus" oneway="1"/>
    <type id="highway.cycleway" priority="1" numLanes="1" speed="8.33" allow="bicycle" oneway="0" width="1.00"/>
    <type id="highway.footway" priority="1" numLanes="1" speed="2.78" allow="pedestrian" oneway="1" width="2.00"/>
    <type id="highway.ford" priority="1" numLanes="1" speed="2.78" allow="army" oneway="0"/>
    <type id="highway.living_street" priority="2" numLanes="1" speed="2.78" disallow="tram rail_urban rail rail_electric rail_fast ship" oneway="0"/>
    <type id="highway.motorway" priority="14" numLanes="2" speed="39.44" allow="private emergency authority army vip passenger hov taxi bus coach delivery truck trailer motorcycle evehicle custom1 custom2" oneway="1"/>
    <type id="highway.motorway_link" priority="9" numLanes="1" speed="22.22" allow="private emergency authority army vip passenger hov taxi bus coach delivery truck trailer motorcycle evehicle custom1 custom2" oneway="1"/>
    <type id="highway.path" priority="1" numLanes="1" speed="2.78" allow="pedestrian bicycle" oneway="0" width="2.00"/>
    <type id="highway.pedestrian" priority="1" numLanes="1" speed="2.78" allow="pedestrian" oneway="1" width="2.00"/>
    <type id="highway.primary" priority="12" numLanes="2" speed="27.78" disallow="tram rail_urban rail rail_electric rail_fast ship" oneway="0"/>
    <type id="highway.primary_link" priority="7" numLanes="1" speed="22.22" disallow="tram rail_urban rail rail_electric rail_fast ship" oneway="0"/>
    <type id="highway.raceway" priority="15" numLanes="2" speed="83.33" allow="vip" oneway="0"/>
    <type id="highway.residential" priority="3" numLanes="1" speed="13.89" disallow="tram rail_urban rail rail_electric rail_fast ship" oneway="0"/>
    <type id="highway.secondary" priority="11" numLanes="1" speed="27.78" disallow="tram rail_urban rail rail_electric rail_fast ship" oneway="0"/>
    <type id="highway.secondary_link" priority="6" numLanes="1" speed="22.22" disallow="tram rail_urban rail rail_electric rail_fast ship" oneway="0"/>
    <type id="highway.service" priority="1" numLanes="1" speed="5.56" allow="pedestrian delivery bicycle" oneway="0"/>
    <type id="highway.stairs" priority="1" numLanes="1" speed="1.39" allow="pedestrian" oneway="1" width="2.00"/>
    <type id="highway.step" priority="1" numLanes="1" speed="1.39" allow="pedestrian" oneway="1" width="2.00"/>
    <type id="highway.steps" priority="1" numLanes="1" speed="1.39" allow="pedestrian" oneway="1" width="2.00"/>
    <type id="highway.tertiary" priority="10" numLanes="1" speed="22.22" disallow="tram rail_urban rail rail_electric rail_fast ship" oneway="0"/>
    <type id="highway.tertiary_link" priority="5" numLanes="1" speed="22.22" disallow="tram rail_urban rail rail_electric rail_fast ship" oneway="0"/>
    <type id="highway.track" priority="1" numLanes="1" speed="5.56" allow="pedestrian motorcycle moped bicycle" oneway="0"/>
    <type id="highway.trunk" priority="13" numLanes="2" speed="27.78" disallow="pedestrian bicycle tram rail_urban rail rail_electric rail_fast ship" oneway="0"/>
    <type id="highway.trunk_link" priority="8" numLanes="1" speed="22.22" disallow="pedestrian bicycle tram rail_urban rail rail_electric rail_fast ship" oneway="0"/>
    <type id="highway.unclassified" priority="4" numLanes="1" speed="13.89" disallow="tram rail_urban rail rail_electric rail_fast ship" oneway="0"/>
    <type id="highway.unsurfaced" priority="1" numLanes="1" speed="8.33" disallow="tram rail_urban rail rail_electric rail_fast ship" oneway="0"/>
    <type id="railway.highspeed" priority="21" numLanes="1" speed="69.44" allow="rail_fast" oneway="1"/>
    <type id="railway.light_rail" priority="19" numLanes="1" speed="27.78" allow="rail_urban" oneway="1"/>
    <type id="railway.preserved" priority="16" numLanes="1" speed="27.78" allow="rail" oneway="1"/>
    <type id="railway.rail" priority="20" numLanes="1" speed="44.44" allow="rail" oneway="1"/>
    <type id="railway.subway" priority="18" numLanes="1" speed="27.78" allow="rail_urban" oneway="1"/>
    <type id="railway.tram" priority="17" numLanes="1" speed="13.89" allow="tram" oneway="1"/>

    <edge id=":23_0" function="internal">
        <lane id=":23_0_0" index="0" disallow="tram rail_urban rail rail_electric rail_fast ship" speed="13.89" length="0.10" shape="344.32,472.10 344.42,472.13"/>
    </edge>
    <edge id=":41_0" function="internal">
        <lane id=":41_0_0" index="0" disallow="tram rail_urban rail rail_electric rail_fast ship" speed="6.21" length="9.05" shape="106.11,682.95 105.51,685.41 105.90,687.36 107.27,688.80 109.63,689.74"/>
    </edge>
    <edge id=":41_1" function="internal">
        <lane id=":41_1_0" index="0" disallow="tram rail_urban rail rail_electric rail_fast ship" speed="3.65" length="2.34" shape="106.11,682.95 104.92,683.76 104.03,683.84"/>
    </edge>
    <edge id=":41_4" function="internal">
        <lane id=":41_4_0" index="0" disallow="tram rail_urban rail rail_electric rail_fast ship" speed="3.65" length="2.34" shape="104.03,683.84 103.43,683.17 103.14,681.76"/>
    </edge>
    <edge id=":41_2" function="internal">
        <lane id=":41_2_0" index="0" disallow="tram rail_urban rail rail_electric rail_fast ship" speed="13.89" length="11.79" shape="98.95,692.78 103.14,681.76"/>
    </edge>
    <edge id=":41_3" function="internal">
        <lane id=":41_3_0" index="0" disallow="tram rail_urban rail rail_electric rail_fast ship" speed="7.73" length="7.95" shape="98.95,692.78 100.28,690.65 102.50,689.44 105.40,689.15"/>
    </edge>
    <edge id=":41_5" function="internal">
        <lane id=":41_5_0" index="0" disallow="tram rail_urban rail rail_electric rail_fast ship" speed="7.73" length="4.28" shape="105.40,689.15 105.62,689.13 109.63,689.74"/>
    </edge>
    <edge id=":42_0" function="internal">
        <lane id=":42_0_0" index="0" disallow="tram rail_urban rail rail_electric rail_fast ship" speed="13.89" length="0.10" shape="135.63,625.31 135.68,625.23"/>
    </edge>
    <edge id=":42_1" function="internal">
        <lane id=":42_1_0" index="0" disallow="tram rail_urban rail rail_electric rail_fast ship" speed="3.65" length="2.34" shape="135.63,625.31 134.29,625.85 133.41,625.73"/>
    </edge>
    <edge id=":42_4" function="internal">
        <lane id=":42_4_0" index="0" disallow="tram rail_urban rail rail_electric rail_fast ship" speed="3.65" length="2.34" shape="133.41,625.73 132.97,624.95 132.99,623.51"/>
    </edge>
    <edge id=":42_2" function="internal">
        <lane id=":42_2_0" index="0" disallow="tram rail_urban rail rail_electric rail_fast ship" speed="13.89" length="0.10" shape="132.94,623.59 132.99,623.51"/>
    </edge>
    <edge id=":42_3" function="internal">
        <lane id=":42_3_0" index="0" disallow="tram rail_urban rail rail_electric rail_fast ship" speed="3.65" length="2.34" shape="132.94,623.59 134.24,622.97 135.13,623.04"/>
    </edge>
    <edge id=":42_5" function="internal">
        <lane id=":42_5_0" index="0" disallow="tram rail_urban rail rail_electric rail_fast ship" speed="3.65" length="2.34" shape="135.13,623.04 135.61,623.79 135.68,625.23"/>
    </edge>
    <edge id=":43_0" function="internal">
        <lane id=":43_0_0" index="0" disallow="tram rail_urban rail rail_electric rail_fast ship" speed="6.59" length="8.84" shape="160.31,585.88 159.91,588.19 160.35,590.13 161.64,591.71 163.77,592.93"/>
    </edge>
    <edge id=":43_1" function="internal">
        <lane id=":43_1_0" index="0" disallow="tram rail_urban rail rail_electric rail_fast ship" speed="13.89" length="11.33" shape="160.31,585.88 159.31,588.90 158.43,591.24 157.32,593.46 155.62,596.13"/>
    </edge>
    <edge id=":43_2" function="internal">
        <lane id=":43_2_0" index="0" disallow="tram rail_urban rail rail_electric rail_fast ship" speed="3.65" length="2.34" shape="160.31,585.88 159.17,586.77 158.29,586.89"/>
    </edge>
    <edge id=":43_6" function="internal">
        <lane id=":43_6_0" index="0" disallow="tram rail_urban rail rail_electric rail_fast ship" speed="3.65" length="2.34" shape="158.29,586.89 157.65,586.26 157.27,584.87"/>
    </edge>
    <edge id=":43_3" function="internal">
        <lane id=":43_3_0" index="0" disallow="tram rail_urban rail rail_electric rail_fast ship" speed="13.89" length="10.44" shape="152.98,594.33 154.62,591.78 155.60,589.83 156.33,587.77 157.27,584.87"/>
    </edge>
    <edge id=":43_4" function="internal">
        <lane id=":43_4_0" index="0" disallow="tram rail_urban rail rail_electric rail_fast ship" speed="7.99" length="4.06" shape="152.98,594.33 154.82,592.54 156.24,592.06"/>
    </edge>
    <edge id=":43_5" function="internal">
        <lane id=":43_5_0" index="0" disallow="tram rail_urban rail rail_electric rail_fast ship" speed="3.65" length="2.34" shape="152.98,594.33 154.32,593.79 155.20,593.91"/>
    </edge>
    <edge id=":43_7" function="internal">
        <lane id=":43_7_0" index="0" disallow="tram rail_urban rail rail_electric rail_fast ship" speed="7.99" length="7.76" shape="156.24,592.06 157.23,591.72 160.21,591.85 163.77,592.93"/>
    </edge>
    <edge id=":43_8" function="internal">
        <lane id=":43_8_0" index="0" disallow="tram rail_urban rail rail_electric rail_fast ship" speed="3.65" length="2.34" shape="155.20,593.91 155.64,594.69 155.62,596.13"/>
    </edge>
    <edge id=":44_0" function="internal">
        <lane id=":44_0_0" index="0" disallow="tram rail_urban rail rail_electric rail_fast ship" speed="13.89" length="0.31" shape="186.15,509.18 186.05,509.47"/>
    </edge>
    <edge id=":44_1" function="internal">
        <lane id=":44_1_0" index="0" disallow="tram rail_urban rail rail_electric rail_fast ship" speed="3.65" length="2.34" shape="186.15,509.18 185.00,510.05 184.12,510.17"/>
    </edge>
    <edge id=":44_4" function="internal">
        <lane id=":44_4_0" index="0" disallow="tram rail_urban rail rail_electric rail_fast ship" speed="3.65" length="2.34" shape="184.12,510.17 183.49,509.53 183.12,508.14"/>
    </edge>
    <edge id=":44_2" function="internal">
        <lane id=":44_2_0" index="0" disallow="tram rail_urban rail rail_electric rail_fast ship" speed="13.89" length="0.25" shape="183.04,508.37 183.12,508.14"/>
    </edge>
    <edge id=":44_3" function="internal">
        <lane id=":44_3_0" index="0" disallow="tram rail_urban rail rail_electric rail_fast ship" speed="3.65" length="2.34" shape="183.04,508.37 184.20,507.52 185.09,507.42"/>
    </edge>
    <edge id=":44_5" function="internal">
        <lane id=":44_5_0" index="0" disallow="tram rail_urban rail rail_electric rail_fast ship" speed="3.65" length="2.34" shape="185.09,507.42 185.70,508.07 186.05,509.47"/>
    </edge>
    <edge id=":45_0" function="internal">
        <lane id=":45_0_0" index="0" disallow="tram rail_urban rail rail_electric rail_fast ship" speed="13.89" length="9.35" shape="208.24,425.19 217.04,428.34"/>
    </edge>
    <edge id=":45_1" function="internal">
        <lane id=":45_1_0" index="0" disallow="tram rail_urban rail rail_electric rail_fast ship" speed="6.13" length="7.74" shape="208.24,425.19 210.74,426.32 212.39,427.55 213.18,428.86 213.11,430.27"/>
    </edge>
    <edge id=":45_2" function="internal">
        <lane id=":45_2_0" index="0" disallow="tram rail_urban rail rail_electric rail_fast ship" speed="6.08" length="7.76" shape="210.08,429.23 210.89,428.08 212.32,427.54 214.37,427.63 217.04,428.34"/>
    </edge>
    <edge id=":45_3" function="internal">
        <lane id=":45_3_0" index="0" disallow="tram rail_urban rail rail_electric rail_fast ship" speed="3.65" length="4.67" shape="210.08,429.23 211.23,428.36 212.11,428.24 212.74,428.87 213.11,430.27"/>
    </edge>
    <edge id=":48_0" function="internal">
        <lane id=":48_0_0" index="0" disallow="tram rail_urban rail rail_electric rail_fast ship" speed="3.90" length="2.58" shape="377.09,575.54 376.40,575.43 375.83,575.57 375.40,575.96 375.09,576.60"/>
    </edge>
    <edge id=":49_0" function="internal">
        <lane id=":49_0_0" index="0" disallow="tram rail_urban rail rail_electric rail_fast ship" speed="13.89" length="6.06" shape="413.71,583.74 413.05,585.42 412.63,586.57 412.25,587.74 411.74,589.47"/>
    </edge>
    <edge id=":49_1" function="internal">
        <lane id=":49_1_0" index="0" disallow="tram rail_urban rail rail_electric rail_fast ship" speed="5.17" length="4.99" shape="413.71,583.74 413.05,584.90 412.15,585.59 411.02,585.83 409.67,585.60"/>
    </edge>
    <edge id=":50_0" function="internal">
        <lane id=":50_0_0" index="0" disallow="tram rail_urban rail rail_electric rail_fast ship" speed="3.90" length="2.82" shape="445.74,497.46 446.46,497.77 446.87,498.24 446.98,498.85 446.79,499.61"/>
    </edge>
    <edge id=":51_0" function="internal">
        <lane id=":51_0_0" index="0" disallow="tram rail_urban rail rail_electric rail_fast ship" speed="13.89" length="11.20" shape="353.09,647.35 349.77,658.05"/>
    </edge>
    <edge id=":51_1" function="internal">
        <lane id=":51_1_0" index="0" disallow="tram rail_urban rail rail_electric rail_fast ship" speed="6.36" length="4.33" shape="345.88,651.30 348.21,652.21 349.51,653.50"/>
    </edge>
    <edge id=":51_2" function="internal">
        <lane id=":51_2_0" index="0" disallow="tram rail_urban rail rail_electric rail_fast ship" speed="6.36" length="4.71" shape="349.51,653.50 349.64,653.63 350.16,655.58 349.77,658.05"/>
    </edge>
    <edge id=":52_0" function="internal">
        <lane id=":52_0_0" index="0" disallow="tram rail_urban rail rail_electric rail_fast ship" speed="13.89" length="0.20" shape="390.33,662.03 390.28,662.22"/>
    </edge>
    <edge id=":53_0" function="internal">
        <lane id=":53_0_0" index="0" disallow="tram rail_urban rail rail_electric rail_fast ship" speed="6.18" length="9.05" shape="371.03,729.41 370.68,731.93 371.26,733.82 372.78,735.10 375.23,735.77"/>
    </edge>
    <edge id=":53_1" function="internal">
        <lane id=":53_1_0" index="0" disallow="tram rail_urban rail rail_electric rail_fast ship" speed="13.89" length="11.71" shape="363.63,734.22 375.23,735.77"/>
    </edge>
    <edge id=":54_0" function="internal">
        <lane id=":54_0_0" index="0" disallow="tram rail_urban rail rail_electric rail_fast ship" speed="6.20" length="9.05" shape="329.07,722.89 328.65,725.39 329.18,727.31 330.65,728.65 333.08,729.39"/>
    </edge>
    <edge id=":54_1" function="internal">
        <lane id=":54_1_0" index="0" disallow="tram rail_urban rail rail_electric rail_fast ship" speed="13.89" length="11.81" shape="321.39,727.74 333.08,729.39"/>
    </edge>
    <edge id=":88_0" function="internal">
        <lane id=":88_0_0" index="0" disallow="tram rail_urban rail rail_electric rail_fast ship" speed="6.55" length="8.85" shape="389.46,483.42 391.83,483.54 393.72,482.87 395.11,481.40 396.02,479.13"/>
    </edge>
    <edge id=":88_1" function="internal">
        <lane id=":88_1_0" index="0" disallow="tram rail_urban rail rail_electric rail_fast ship" speed="13.89" length="10.79" shape="389.46,483.42 400.02,485.63"/>
    </edge>
    <edge id=":90_0" function="internal">
        <lane id=":90_0_0" index="0" disallow="tram rail_urban rail rail_electric rail_fast ship" speed="13.89" length="0.30" shape="121.07,365.40 121.33,365.25"/>
        <lane id=":90_0_1" index="1" disallow="tram rail_urban rail rail_electric rail_fast ship" speed="13.89" length="0.30" shape="122.65,368.19 122.91,368.04"/>
    </edge>
    <edge id=":94_0" function="internal">
        <lane id=":94_0_0" index="0" disallow="tram rail_urban rail rail_electric rail_fast ship" speed="7.08" length="11.68" shape="143.07,357.61 145.52,357.00 147.74,357.75 149.72,359.87 151.47,363.37"/>
    </edge>

    <edge id="132" from="77" to="90" priority="11" type="highway.secondary" spreadType="center" shape="21.99,426.55 55.34,404.30 121.99,366.72">
        <lane id="132_0" index="0" disallow="tram rail_urban rail rail_electric rail_fast ship" speed="13.89" length="116.46" shape="21.10,425.22 54.50,402.94 121.07,365.40"/>
        <lane id="132_1" index="1" disallow="tram rail_urban rail rail_electric rail_fast ship" speed="13.89" length="116.46" shape="22.88,427.88 56.18,405.66 122.65,368.19"/>
    </edge>
    <edge id="133" from="90" to="94" priority="11" type="highway.secondary" spreadType="center" shape="121.99,366.72 125.94,364.49 145.30,354.69">
        <lane id="133_0" index="0" disallow="tram rail_urban rail rail_electric rail_fast ship" speed="13.89" length="22.78" shape="121.33,365.25 125.19,363.08 141.63,354.76"/>
        <lane id="133_1" index="1" disallow="tram rail_urban rail rail_electric rail_fast ship" speed="13.89" length="22.78" shape="122.91,368.04 126.69,365.90 143.07,357.61"/>
    </edge>
    <edge id="144" from="23" to="88" priority="10" type="highway.tertiary" shape="343.90,473.65 368.83,480.45 373.01,481.59 377.01,482.57 395.88,486.33">
        <lane id="144_0" index="0" disallow="tram rail_urban rail rail_electric rail_fast ship" speed="13.89" length="46.45" shape="344.42,472.13 369.25,478.91 373.41,480.04 377.36,481.01 389.46,483.42"/>
    </edge>
    <edge id="145" from="88" to="50" priority="10" type="highway.tertiary" shape="395.88,486.33 416.12,490.95 445.31,499.00">
        <lane id="145_0" index="0" disallow="tram rail_urban rail rail_electric rail_fast ship" speed="13.89" length="47.23" shape="400.02,485.63 416.51,489.40 445.74,497.46"/>
    </edge>
    <edge id="153" from="45" to="23" priority="10" type="highway.tertiary" shape="212.08,428.33 228.17,433.83 236.92,436.82 269.73,447.91 304.79,460.19 343.90,473.65">
        <lane id="153_0" index="0" disallow="tram rail_urban rail rail_electric rail_fast ship" speed="13.89" length="134.59" shape="217.04,428.34 228.69,432.32 237.43,435.31 270.25,446.40 305.31,458.68 344.32,472.10"/>
    </edge>
    <edge id="159" from="88" to="91" priority="3" type="highway.residential" shape="395.88,486.33 398.36,476.36 419.29,398.98 420.29,395.43 421.29,391.93 439.12,328.90 443.15,320.49 449.39,319.11 456.28,317.64 517.60,334.72 524.96,341.90 516.20,373.42">
        <lane id="159_0" index="0" disallow="tram rail_urban rail rail_electric rail_fast ship" speed="13.89" length="291.06" shape="396.02,479.13 396.81,475.96 417.75,398.56 418.75,394.99 419.75,391.49 437.62,328.33 442.04,319.10 449.05,317.55 456.33,315.99 518.42,333.29 526.76,341.42 517.74,373.85"/>
    </edge>
    <edge id="162" from="43" to="51" priority="3" type="highway.residential" shape="156.67,591.77 160.92,593.50 228.44,620.92 283.45,638.54 349.42,653.76">
        <lane id="162_0" index="0" disallow="tram rail_urban rail rail_electric rail_fast ship" speed="13.89" length="191.66" shape="163.77,592.93 228.99,619.41 283.87,637.00 345.88,651.30"/>
    </edge>
    <edge id="163" from="41" to="54" priority="3" type="highway.residential" shape="101.76,689.51 107.31,690.83 153.33,701.81 187.72,709.35 224.42,716.59 271.87,723.94 325.19,729.77">
        <lane id="163_0" index="0" disallow="tram rail_urban rail rail_electric rail_fast ship" speed="13.89" length="215.38" shape="109.63,689.74 153.69,700.25 188.05,707.78 224.70,715.01 272.08,722.35 321.39,727.74"/>
    </edge>
    <edge id="164" from="54" to="53" priority="3" type="highway.residential">
        <lane id="164_0" index="0" disallow="tram rail_urban rail rail_electric rail_fast ship" speed="13.89" length="30.93" shape="333.08,729.39 363.63,734.22"/>
    </edge>
    <edge id="165" from="53" to="10" priority="3" type="highway.residential">
        <lane id="165_0" index="0" disallow="tram rail_urban rail rail_electric rail_fast ship" speed="13.89" length="63.19" shape="375.23,735.77 437.96,743.38"/>
    </edge>
    <edge id="168" from="48" to="51" priority="3" type="highway.residential">
        <lane id="168_0" index="0" disallow="tram rail_urban rail rail_electric rail_fast ship" speed="13.89" length="74.10" shape="375.09,576.60 353.09,647.35"/>
    </edge>
    <edge id="169" from="51" to="54" priority="3" type="highway.residential" shape="349.42,653.76 347.19,661.02 325.19,729.77">
        <lane id="169_0" index="0" disallow="tram rail_urban rail rail_electric rail_fast ship" speed="13.89" length="68.07" shape="349.77,658.05 348.72,661.50 329.07,722.89"/>
    </edge>
    <edge id="43" from="94" to="45" priority="10" type="highway.tertiary" shape="149.98,363.95 153.00,371.70 159.20,387.66 163.06,397.80 167.77,406.50 169.22,409.18 180.96,416.78 210.54,427.75 212.08,428.33">
        <lane id="43_0" index="0" disallow="tram rail_urban rail rail_electric rail_fast ship" speed="13.89" length="90.35" shape="151.47,363.37 154.49,371.12 160.69,387.08 164.52,397.13 169.18,405.74 170.43,408.06 181.68,415.34 208.24,425.19"/>
    </edge>
    <edge id="47" from="50" to="49" priority="3" type="highway.residential" shape="445.31,499.00 438.71,514.89 429.09,540.69 411.08,586.04">
        <lane id="47_0" index="0" disallow="tram rail_urban rail rail_electric rail_fast ship" speed="13.89" length="90.41" shape="446.79,499.61 440.20,515.48 430.58,541.26 413.71,583.74"/>
    </edge>
    <edge id="55" from="52" to="53" priority="3" type="highway.residential" shape="388.76,661.71 387.28,667.72 367.33,736.42">
        <lane id="55_0" index="0" disallow="tram rail_urban rail rail_electric rail_fast ship" speed="13.89" length="69.89" shape="390.28,662.22 388.83,668.13 371.03,729.41"/>
    </edge>
    <edge id="56" from="49" to="52" priority="3" type="highway.residential">
        <lane id="56_0" index="0" disallow="tram rail_urban rail rail_electric rail_fast ship" speed="13.89" length="75.66" shape="411.74,589.47 390.33,662.03"/>
    </edge>
    <edge id="6" from="42" to="41" priority="3" type="highway.residential" shape="134.31,624.41 114.70,657.14 101.76,689.51">
        <lane id="6_0" index="0" disallow="tram rail_urban rail rail_electric rail_fast ship" speed="13.89" length="65.05" shape="135.68,625.23 116.14,657.85 106.11,682.95"/>
    </edge>
    <edge id="7" from="43" to="42" priority="3" type="highway.residential">
        <lane id="7_0" index="0" disallow="tram rail_urban rail rail_electric rail_fast ship" speed="13.89" length="35.37" shape="155.62,596.13 135.63,625.31"/>
    </edge>
    <edge id="75" from="49" to="48" priority="3" type="highway.residential" spreadType="center">
        <lane id="75_0" index="0" disallow="tram rail_urban rail rail_electric rail_fast ship" speed="13.89" length="34.09" shape="409.67,585.60 377.09,575.54"/>
    </edge>
    <edge id="8" from="44" to="43" priority="3" type="highway.residential" shape="184.59,508.79 180.18,520.88 156.67,591.77">
        <lane id="8_0" index="0" disallow="tram rail_urban rail rail_electric rail_fast ship" speed="13.89" length="80.63" shape="186.05,509.47 181.69,521.41 160.31,585.88"/>
    </edge>
    <edge id="84" from="37" to="41" priority="3" type="highway.residential" shape="95.28,957.18 98.20,947.01 87.04,898.25 79.89,863.06 78.21,854.31 78.78,800.48 81.14,769.55 82.38,758.88 84.71,745.60 91.96,718.18 101.76,689.51">
        <lane id="84_0" index="0" disallow="tram rail_urban rail rail_electric rail_fast ship" speed="13.89" length="269.22" shape="93.74,956.74 96.55,946.96 85.48,898.59 78.32,863.38 76.61,854.45 77.18,800.41 79.55,769.40 80.80,758.65 83.15,745.26 90.43,717.72 98.95,692.78"/>
    </edge>
    <edge id="85" from="41" to="42" priority="3" type="highway.residential" shape="101.76,689.51 114.70,657.14 134.31,624.41">
        <lane id="85_0" index="0" disallow="tram rail_urban rail rail_electric rail_fast ship" speed="13.89" length="65.56" shape="103.14,681.76 113.26,656.43 132.94,623.59"/>
    </edge>
    <edge id="86" from="42" to="43" priority="3" type="highway.residential">
        <lane id="86_0" index="0" disallow="tram rail_urban rail rail_electric rail_fast ship" speed="13.89" length="35.37" shape="132.99,623.51 152.98,594.33"/>
    </edge>
    <edge id="87" from="43" to="44" priority="3" type="highway.residential" shape="156.67,591.77 180.18,520.88 184.59,508.79">
        <lane id="87_0" index="0" disallow="tram rail_urban rail rail_electric rail_fast ship" speed="13.89" length="80.73" shape="157.27,584.87 178.67,520.35 183.04,508.37"/>
    </edge>
    <edge id="88" from="44" to="45" priority="3" type="highway.residential" shape="184.59,508.79 208.46,438.92 212.08,428.33">
        <lane id="88_0" index="0" disallow="tram rail_urban rail rail_electric rail_fast ship" speed="13.89" length="83.39" shape="183.12,508.14 206.95,438.40 210.08,429.23"/>
    </edge>
    <edge id="9" from="45" to="44" priority="3" type="highway.residential" shape="212.08,428.33 208.46,438.92 184.59,508.79">
        <lane id="9_0" index="0" disallow="tram rail_urban rail rail_electric rail_fast ship" speed="13.89" length="83.39" shape="213.11,430.27 209.97,439.44 186.15,509.18"/>
    </edge>

    <tlLogic id="7507510750" type="static" programID="0" offset="0">
        <phase duration="82" state="GG"/>
        <phase duration="3"  state="yy"/>
        <phase duration="5"  state="rr"/>
    </tlLogic>

    <junction id="10" type="dead_end" x="437.77" y="744.97" incLanes="165_0" intLanes="" shape="438.16,741.79 437.77,744.97"/>
    <junction id="23" type="priority" x="343.90" y="473.65" incLanes="153_0" intLanes=":23_0_0" shape="344.00,473.68 344.84,470.59 343.80,473.62">
        <request index="0" response="0" foes="0" cont="0"/>
    </junction>
    <junction id="37" type="dead_end" x="95.28" y="957.18" incLanes="" intLanes="" shape="95.28,957.18 92.20,956.30"/>
    <junction id="41" type="priority" x="101.76" y="689.51" incLanes="6_0 84_0" intLanes=":41_0_0 :41_4_0 :41_2_0 :41_5_0" shape="109.26,691.29 110.00,688.18 108.00,687.25 107.45,686.56 107.20,685.71 107.25,684.70 107.59,683.54 101.65,681.16 97.44,692.26 100.47,693.29 102.02,691.39 103.31,690.90 104.95,690.72 106.93,690.85">
        <request index="0" response="0000" foes="1000" cont="0"/>
        <request index="1" response="0100" foes="0100" cont="1"/>
        <request index="2" response="0000" foes="0010" cont="0"/>
        <request index="3" response="0001" foes="0001" cont="1"/>
    </junction>
    <junction id="42" type="priority" x="134.31" y="624.41" incLanes="7_0 85_0" intLanes=":42_0_0 :42_4_0 :42_2_0 :42_5_0" shape="137.00,626.14 131.73,622.52 131.51,622.85">
        <request index="0" response="0000" foes="1000" cont="0"/>
        <request index="1" response="0100" foes="0100" cont="1"/>
        <request index="2" response="0000" foes="0010" cont="0"/>
        <request index="3" response="0001" foes="0001" cont="1"/>
    </junction>
    <junction id="43" type="priority" x="156.67" y="591.77" incLanes="8_0 86_0" intLanes=":43_0_0 :43_1_0 :43_6_0 :43_3_0 :43_7_0 :43_8_0" shape="163.17,594.41 164.38,591.45 162.44,590.21 161.88,589.43 161.59,588.52 161.57,587.51 161.83,586.38 155.75,584.37 155.10,586.39 154.62,587.90 154.17,589.13 153.62,590.30 152.83,591.66 151.66,593.42 156.94,597.04 158.86,594.95 159.88,594.37 160.94,594.08 162.03,594.10">
        <request index="0" response="000000" foes="010000" cont="0"/>
        <request index="1" response="000000" foes="110000" cont="0"/>
        <request index="2" response="001000" foes="001000" cont="1"/>
        <request index="3" response="000000" foes="000100" cont="0"/>
        <request index="4" response="000011" foes="000011" cont="1"/>
        <request index="5" response="000010" foes="000010" cont="1"/>
    </junction>
    <junction id="44" type="priority" x="184.59" y="508.79" incLanes="9_0 87_0" intLanes=":44_0_0 :44_4_0 :44_2_0 :44_5_0" shape="187.66,509.69 181.61,507.62 181.54,507.82 187.55,510.02">
        <request index="0" response="0000" foes="1000" cont="0"/>
        <request index="1" response="0100" foes="0100" cont="1"/>
        <request index="2" response="0000" foes="0010" cont="0"/>
        <request index="3" response="0001" foes="0001" cont="1"/>
    </junction>