<?xml version='1.0' encoding='utf-8'?>
<routes>
	<vType accel="3.0" decel="6.0" id="CarDefault" length="5.0" minGap="2.5" maxSpeed="50.0" sigma="0.5" />
	<route id="sr1061" edges="288 287 739 415 233 886 774 502 627 628 967 968 957 958 511 512 513 890 891 766 1018 1019 1020 1021 1022 898 961 1017 960 706" fromJunction="241" toJunction="248" />
	<route id="sr1062" edges="954 658 159 161 175 174 861 862 906 907 908 909 629 630 631 506 507 508 509 510 892 893 503 740 1009 505 962 963 825 361 369 368 365 364 251" fromJunction="77" toJunction="292" />
	<route id="sr1063" edges="897 332 331 428 427 426 425 424 423 400 399 404 403 124 123 892 893 503 740 1009 505 213 212 211 411 410 8" fromJunction="315" toJunction="357" />
	<vehicle id="v11" depart="0" route="sr1061" type="CarDefault" departLane="random" />
	<vehicle id="v76" depart="0.0" route="sr1062" type="CarDefault" departLane="random" />
	<vehicle id="v116" depart="0.0" route="sr1063" type="CarDefault" departLane="random" />
	<vehicle id="v7" depart="1" route="sr1061" type="CarDefault" departLane="random" />
	<vehicle id="v10" depart="1" route="sr1061" type="CarDefault" departLane="random" />
	<vehicle id="v6" depart="2" route="sr1061" type="CarDefault" departLane="random" />
	<vehicle id="v4" depart="3" route="sr1061" type="CarDefault" departLane="random" />
	<vehicle id="v77" depart="3.08" route="sr1062" type="CarDefault" departLane="random" />
	<vehicle id="v9" depart="5" route="sr1061" type="CarDefault" departLane="random" />
	<vehicle id="v0" depart="6" route="sr1061" type="CarDefault" departLane="random" />
	<vehicle id="v78" depart="6.15" route="sr1062" type="CarDefault" departLane="random" />
	<vehicle id="v5" depart="7" route="sr1061" type="CarDefault" departLane="random" />
	<vehicle id="v79" depart="9.23" route="sr1062" type="CarDefault" departLane="random" />
	<vehicle id="v2" depart="10" route="sr1061" type="CarDefault" departLane="random" />
	<vehicle id="v3" depart="10" route="sr1061" type="CarDefault" departLane="random" />
	<vehicle id="v117" depart="10.0" route="sr1063" type="CarDefault" departLane="random" />
	<vehicle id="v8" depart="11" route="sr1061" type="CarDefault" departLane="random" />
	<vehicle id="v12" depart="11" route="sr1061" type="CarDefault" departLane="random" />
	<vehicle id="v13" depart="11" route="sr1061" type="CarDefault" departLane="random" />
	<vehicle id="v80" depart="12.31" route="sr1062" type="CarDefault" departLane="random" />
	<vehicle id="v81" depart="15.38" route="sr1062" type="CarDefault" departLane="random" />
	<vehicle id="v1" depart="18" route="sr1061" type="CarDefault" departLane="random" />
	<vehicle id="v82" depart="18.46" route="sr1062" type="CarDefault" departLane="random" />
	<vehicle id="v118" depart="20.0" route="sr1063" type="CarDefault" departLane="random" />
	<vehicle id="v83" depart="21.54" route="sr1062" type="CarDefault" departLane="random" />
	<vehicle id="v22" depart="22" route="sr1061" type="CarDefault" departLane="random" />
	<vehicle id="v23" depart="24" route="sr1061" type="CarDefault" departLane="random" />
	<vehicle id="v84" depart="24.62" route="sr1062" type="CarDefault" departLane="random" />
	<vehicle id="v85" depart="27.69" route="sr1062" type="CarDefault" departLane="random" />
	<vehicle id="v15" depart="29" route="sr1061" type="CarDefault" departLane="random" />
	<vehicle id="v119" depart="30.0" route="sr1063" type="CarDefault" departLane="random" />
	<vehicle id="v121" depart="30" route="sr1063" type="CarDefault" departLane="random" />
	<vehicle id="v86" depart="30.77" route="sr1062" type="CarDefault" departLane="random" />
	<vehicle id="v20" depart="31" route="sr1061" type="CarDefault" departLane="random" />
	<vehicle id="v87" depart="33.85" route="sr1062" type="CarDefault" departLane="random" />
	<vehicle id="v17" depart="34" route="sr1061" type="CarDefault" departLane="random" />
	<vehicle id="v18" depart="34" route="sr1061" type="CarDefault" departLane="random" />
	<vehicle id="v16" depart="35" route="sr1061" type="CarDefault" departLane="random" />
	<vehicle id="v14" depart="36" route="sr1061" type="CarDefault" departLane="random" />
	<vehicle id="v88" depart="36.92" route="sr1062" type="CarDefault" departLane="random" />
	<vehicle id="v19" depart="38" route="sr1061" type="CarDefault" departLane="random" />
	<vehicle id="v24" depart="38" route="sr1061" type="CarDefault" departLane="random" />
	<vehicle id="v122" depart="38" route="sr1063" type="CarDefault" departLane="random" />
	<vehicle id="v21" depart="39" route="sr1061" type="CarDefault" departLane="random" />
	<vehicle id="v89" depart="40.0" route="sr1062" type="CarDefault" departLane="random" />
	<vehicle id="v120" depart="40.0" route="sr1063" type="CarDefault" departLane="random" />
	<vehicle id="v123" depart="40.0" route="sr1063" type="CarDefault" departLane="random" />
	<vehicle id="v33" depart="41" route="sr1061" type="CarDefault" departLane="random" />
	<vehicle id="v29" depart="43" route="sr1061" type="CarDefault" departLane="random" />
	<vehicle id="v90" depart="43.08" route="sr1062" type="CarDefault" departLane="random" />
	<vehicle id="v124" depart="45.71" route="sr1063" type="CarDefault" departLane="random" />
	<vehicle id="v25" depart="46" route="sr1061" type="CarDefault" departLane="random" />
	<vehicle id="v27" depart="46" route="sr1061" type="CarDefault" departLane="random" />
	<vehicle id="v36" depart="46" route="sr1061" type="CarDefault" departLane="random" />
	<vehicle id="v91" depart="46.15" route="sr1062" type="CarDefault" departLane="random" />
	<vehicle id="v26" depart="48" route="sr1061" type="CarDefault" departLane="random" />
	<vehicle id="v32" depart="48" route="sr1061" type="CarDefault" departLane="random" />
	<vehicle id="v92" depart="49.23" route="sr1062" type="CarDefault" departLane="random" />
	<vehicle id="v125" depart="51.43" route="sr1063" type="CarDefault" departLane="random" />
	<vehicle id="v93" depart="52.31" route="sr1062" type="CarDefault" departLane="random" />
	<vehicle id="v30" depart="53" route="sr1061" type="CarDefault" departLane="random" />
	<vehicle id="v35" depart="54" route="sr1061" type="CarDefault" departLane="random" />
	<vehicle id="v94" depart="55.38" route="sr1062" type="CarDefault" departLane="random" />
	<vehicle id="v28" depart="57" route="sr1061" type="CarDefault" departLane="random" />
	<vehicle id="v31" depart="57" route="sr1061" type="CarDefault" departLane="random" />
	<vehicle id="v126" depart="57.14" route="sr1063" type="CarDefault" departLane="random" />
	<vehicle id="v95" depart="58.46" route="sr1062" type="CarDefault" departLane="random" />
	<vehicle id="v34" depart="59" route="sr1061" type="CarDefault" departLane="random" />
	<vehicle id="v47" depart="61" route="sr1061" type="CarDefault" departLane="random" />
	<vehicle id="v96" depart="61.54" route="sr1062" type="CarDefault" departLane="random" />
	<vehicle id="v40" depart="62" route="sr1061" type="CarDefault" departLane="random" />
	<vehicle id="v132" depart="62" route="sr1063" type="CarDefault" departLane="random" />
	<vehicle id="v127" depart="62.86" route="sr1063" type="CarDefault" departLane="random" />
	<vehicle id="v43" depart="63" route="sr1061" type="CarDefault" departLane="random" />
	<vehicle id="v46" depart="63" route="sr1061" type="CarDefault" departLane="random" />
	<vehicle id="v50" depart="63" route="sr1061" type="CarDefault" departLane="random" />
	<vehicle id="v97" depart="64.62" route="sr1062" type="CarDefault" departLane="random" />
	<vehicle id="v48" depart="65" route="sr1061" type="CarDefault" departLane="random" />
	<vehicle id="v38" depart="67" route="sr1061" type="CarDefault" departLane="random" />
	<vehicle id="v45" depart="67" route="sr1061" type="CarDefault" departLane="random" />
	<vehicle id="v131" depart="67" route="sr1063" type="CarDefault" departLane="random" />
	<vehicle id="v98" depart="67.69" route="sr1062" type="CarDefault" departLane="random" />
	<vehicle id="v128" depart="68.57" route="sr1063" type="CarDefault" departLane="random" />
	<vehicle id="v49" depart="69" route="sr1061" type="CarDefault" departLane="random" />
	<vehicle id="v99" depart="70.77" route="sr1062" type="CarDefault" departLane="random" />
	<vehicle id="v37" depart="71" route="sr1061" type="CarDefault" departLane="random" />
	<vehicle id="v41" depart="73" route="sr1061" type="CarDefault" departLane="random" />
	<vehicle id="v100" depart="73.85" route="sr1062" type="CarDefault" departLane="random" />
	<vehicle id="v39" depart="74" route="sr1061" type="CarDefault" departLane="random" />
	<vehicle id="v129" depart="74.29" route="sr1063" type="CarDefault" departLane="random" />
	<vehicle id="v42" depart="76" route="sr1061" type="CarDefault" departLane="random" />
	<vehicle id="v101" depart="76.92" route="sr1062" type="CarDefault" departLane="random" />
	<vehicle id="v44" depart="77" route="sr1061" type="CarDefault" departLane="random" />
	<vehicle id="v102" depart="80.0" route="sr1062" type="CarDefault" departLane="random" />
	<vehicle id="v130" depart="80.0" route="sr1063" type="CarDefault" departLane="random" />
	<vehicle id="v133" depart="80.0" route="sr1063" type="CarDefault" departLane="random" />
	<vehicle id="v53" depart="81" route="sr1061" type="CarDefault" departLane="random" />
	<vehicle id="v55" depart="83" route="sr1061" type="CarDefault" departLane="random" />
	<vehicle id="v103" depart="83.08" route="sr1062" type="CarDefault" departLane="random" />
	<vehicle id="v134" depart="83.33" route="sr1063" type="CarDefault" departLane="random" />
	<vehicle id="v104" depart="86.15" route="sr1062" type="CarDefault" departLane="random" />
	<vehicle id="v135" depart="86.67" route="sr1063" type="CarDefault" departLane="random" />
	<vehicle id="v59" depart="87" route="sr1061" type="CarDefault" departLane="random" />
	<vehicle id="v54" depart="89" route="sr1061" type="CarDefault" departLane="random" />
	<vehicle id="v105" depart="89.23" route="sr1062" type="CarDefault" departLane="random" />
	<vehicle id="v136" depart="90.0" route="sr1063" type="CarDefault" departLane="random" />
	<vehicle id="v52" depart="91" route="sr1061" type="CarDefault" departLane="random" />
	<vehicle id="v106" depart="92.31" route="sr1062" type="CarDefault" departLane="random" />
	<vehicle id="v56" depart="93" route="sr1061" type="CarDefault" departLane="random" />
	<vehicle id="v60" depart="93" route="sr1061" type="CarDefault" departLane="random" />
	<vehicle id="v137" depart="93.33" route="sr1063" type="CarDefault" departLane="random" />
	<vehicle id="v58" depart="94" route="sr1061" type="CarDefault" departLane="random" />
	<vehicle id="v57" depart="95" route="sr1061" type="CarDefault" departLane="random" />
	<vehicle id="v107" depart="95.38" route="sr1062" type="CarDefault" departLane="random" />
	<vehicle id="v138" depart="96.67" route="sr1063" type="CarDefault" departLane="random" />
	<vehicle id="v51" depart="97" route="sr1061" type="CarDefault" departLane="random" />
	<vehicle id="v108" depart="98.46" route="sr1062" type="CarDefault" departLane="random" />
	<vehicle id="v70" depart="100" route="sr1061" type="CarDefault" departLane="random" />
	<vehicle id="v73" depart="100" route="sr1061" type="CarDefault" departLane="random" />
	<vehicle id="v139" depart="100.0" route="sr1063" type="CarDefault" departLane="random" />
	<vehicle id="v146" depart="100" route="sr1063" type="CarDefault" departLane="random" />
	<vehicle id="v109" depart="101.54" route="sr1062" type="CarDefault" departLane="random" />
	<vehicle id="v140" depart="103.33" route="sr1063" type="CarDefault" departLane="random" />
	<vehicle id="v147" depart="104" route="sr1063" type="CarDefault" departLane="random" />
	<vehicle id="v110" depart="104.62" route="sr1062" type="CarDefault" departLane="random" />
	<vehicle id="v71" depart="106" route="sr1061" type="CarDefault" departLane="random" />
	<vehicle id="v141" depart="106.67" route="sr1063" type="CarDefault" departLane="random" />
	<vehicle id="v61" depart="107" route="sr1061" type="CarDefault" departLane="random" />
	<vehicle id="v75" depart="107" route="sr1061" type="CarDefault" departLane="random" />
	<vehicle id="v111" depart="107.69" route="sr1062" type="CarDefault" departLane="random" />
	<vehicle id="v67" depart="108" route="sr1061" type="CarDefault" departLane="random" />
	<vehicle id="v72" depart="108" route="sr1061" type="CarDefault" departLane="random" />
	<vehicle id="v148" depart="109" route="sr1063" type="CarDefault" departLane="random" />
	<vehicle id="v142" depart="110.0" route="sr1063" type="CarDefault" departLane="random" />
	<vehicle id="v112" depart="110.77" route="sr1062" type="CarDefault" departLane="random" />
	<vehicle id="v74" depart="111" route="sr1061" type="CarDefault" departLane="random" />
	<vehicle id="v63" depart="112" route="sr1061" type="CarDefault" departLane="random" />
	<vehicle id="v66" depart="112" route="sr1061" type="CarDefault" departLane="random" />
	<vehicle id="v69" depart="112" route="sr1061" type="CarDefault" departLane="random" />
	<vehicle id="v143" depart="113.33" route="sr1063" type="CarDefault" departLane="random" />
	<vehicle id="v113" depart="113.85" route="sr1062" type="CarDefault" departLane="random" />
	<vehicle id="v65" depart="114" route="sr1061" type="CarDefault" departLane="random" />
	<vehicle id="v68" depart="114" route="sr1061" type="CarDefault" departLane="random" />
	<vehicle id="v62" depart="115" route="sr1061" type="CarDefault" departLane="random" />
	<vehicle id="v144" depart="116.67" route="sr1063" type="CarDefault" departLane="random" />
	<vehicle id="v114" depart="116.92" route="sr1062" type="CarDefault" departLane="random" />
	<vehicle id="v64" depart="117" route="sr1061" type="CarDefault" departLane="random" />
	<vehicle id="v115" depart="120.0" route="sr1062" type="CarDefault" departLane="random" />
	<vehicle id="v145" depart="120.0" route="sr1063" type="CarDefault" departLane="random" />
</routes>