<?xml version='1.0' encoding='utf-8'?>
<routes>
	<vType accel="3.0" decel="6.0" id="CarDefault" length="5.0" minGap="2.5" maxSpeed="50.0" sigma="0.5" />
	<route id="sr461" edges="135 56 111 110 109 108 107 182 183 413 82 209 208 49 48 47" fromJunction="117" toJunction="127" />
	<route id="r815" edges="135 56 230 302 303 304 238 121 120 194 195 196 134 49 48 47" fromJunction="117" toJunction="127" />
	<route id="sr459" edges="279 280 281 282 283 284 285 402 403 404 405 406 454 206 18 17 91 16 15 139 140 141 431 255" fromJunction="42" toJunction="154" />
	<route id="sr462" edges="226 227 228 454 206 185 430 376 377 378 379 380 145 146 291 224 225" fromJunction="127" toJunction="132" />
	<route id="sr460" edges="62 129 61 6 341 371 372 373 374 375 376 377 378 264 263 93 156 157 158 401 237 0" fromJunction="154" toJunction="117" />
	<route id="r813" edges="226 227 228 454 206 18 17 137 1 172 173 174 175 448 449 452 147 148 149 150 145 146 291 224 225" fromJunction="127" toJunction="132" />
	<route id="r814" edges="62 129 61 6 341 371 372 373 374 375 376 377 378 264 263 93 156 278 41 40 237 0" fromJunction="154" toJunction="117" />
	<route id="r812" edges="279 280 281 282 283 284 285 402 403 404 405 406 454 206 18 17 91 172 173 174 175 176 177 355 348 141 431 255" fromJunction="42" toJunction="154" />
	<vehicle id="v0" depart="0.0" route="sr459" type="CarDefault" departLane="random" />
	<vehicle id="v169" depart="0.0" route="sr460" type="CarDefault" departLane="random" />
	<vehicle id="v346" depart="0.0" route="sr461" type="CarDefault" departLane="random" />
	<vehicle id="v453" depart="0.0" route="sr462" type="CarDefault" departLane="random" />
	<vehicle id="v170" depart="3.41" route="sr460" type="CarDefault" departLane="random" />
	<vehicle id="v347" depart="5.66" route="sr461" type="CarDefault" departLane="random" />
	<vehicle id="v171" depart="6.82" route="sr460" type="CarDefault" departLane="random" />
	<vehicle id="v1" depart="7.41" route="sr459" type="CarDefault" departLane="random" />
	<vehicle id="v454" depart="7.41" route="sr462" type="CarDefault" departLane="random" />
	<vehicle id="v172" depart="10.23" route="sr460" type="CarDefault" departLane="random" />
	<vehicle id="v348" depart="11.32" route="sr461" type="CarDefault" departLane="random" />
	<vehicle id="v173" depart="13.64" route="sr460" type="CarDefault" departLane="random" />
	<vehicle id="v2" depart="14.81" route="sr459" type="CarDefault" departLane="random" />
	<vehicle id="v455" depart="14.81" route="sr462" type="CarDefault" departLane="random" />
	<vehicle id="v349" depart="16.98" route="sr461" type="CarDefault" departLane="random" />
	<vehicle id="v174" depart="17.05" route="sr460" type="CarDefault" departLane="random" />
	<vehicle id="v175" depart="20.45" route="sr460" type="CarDefault" departLane="random" />
	<vehicle id="v3" depart="22.22" route="sr459" type="CarDefault" departLane="random" />
	<vehicle id="v456" depart="22.22" route="sr462" type="CarDefault" departLane="random" />
	<vehicle id="v350" depart="22.64" route="sr461" type="CarDefault" departLane="random" />
	<vehicle id="v176" depart="23.86" route="sr460" type="CarDefault" departLane="random" />
	<vehicle id="v177" depart="27.27" route="sr460" type="CarDefault" departLane="random" />
	<vehicle id="v351" depart="28.3" route="sr461" type="CarDefault" departLane="random" />
	<vehicle id="v4" depart="29.63" route="sr459" type="CarDefault" departLane="random" />
	<vehicle id="v457" depart="29.63" route="sr462" type="CarDefault" departLane="random" />
	<vehicle id="v178" depart="30.68" route="r814" type="CarDefault" departLane="random" />
	<vehicle id="v352" depart="33.96" route="r815" type="CarDefault" departLane="random" />
	<vehicle id="v179" depart="34.09" route="r814" type="CarDefault" departLane="random" />
	<vehicle id="v5" depart="37.04" route="r812" type="CarDefault" departLane="random" />
	<vehicle id="v458" depart="37.04" route="r813" type="CarDefault" departLane="random" />
	<vehicle id="v180" depart="37.5" route="r814" type="CarDefault" departLane="random" />
	<vehicle id="v353" depart="39.62" route="r815" type="CarDefault" departLane="random" />
	<vehicle id="v181" depart="40.91" route="r814" type="CarDefault" departLane="random" />
	<vehicle id="v182" depart="44.32" route="r814" type="CarDefault" departLane="random" />
	<vehicle id="v6" depart="44.44" route="r812" type="CarDefault" departLane="random" />
	<vehicle id="v459" depart="44.44" route="r813" type="CarDefault" departLane="random" />
	<vehicle id="v354" depart="45.28" route="r815" type="CarDefault" departLane="random" />
	<vehicle id="v183" depart="47.73" route="r814" type="CarDefault" departLane="random" />
	<vehicle id="v355" depart="50.94" route="r815" type="CarDefault" departLane="random" />
	<vehicle id="v184" depart="51.14" route="r814" type="CarDefault" departLane="random" />
	<vehicle id="v7" depart="51.85" route="r812" type="CarDefault" departLane="random" />
	<vehicle id="v460" depart="51.85" route="r813" type="CarDefault" departLane="random" />
	<vehicle id="v185" depart="54.55" route="r814" type="CarDefault" departLane="random" />
	<vehicle id="v356" depart="56.6" route="r815" type="CarDefault" departLane="random" />
	<vehicle id="v186" depart="57.95" route="r814" type="CarDefault" departLane="random" />
	<vehicle id="v8" depart="59.26" route="r812" type="CarDefault" departLane="random" />
	<vehicle id="v461" depart="59.26" route="r813" type="CarDefault" departLane="random" />
	<vehicle id="v187" depart="61.36" route="r814" type="CarDefault" departLane="random" />
	<vehicle id="v357" depart="62.26" route="r815" type="CarDefault" departLane="random" />
	<vehicle id="v188" depart="64.77" route="r814" type="CarDefault" departLane="random" />
	<vehicle id="v9" depart="66.67" route="r812" type="CarDefault" departLane="random" />
	<vehicle id="v462" depart="66.67" route="r813" type="CarDefault" departLane="random" />
	<vehicle id="v358" depart="67.92" route="r815" type="CarDefault" departLane="random" />
	<vehicle id="v189" depart="68.18" route="r814" type="CarDefault" departLane="random" />
	<vehicle id="v190" depart="71.59" route="r814" type="CarDefault" departLane="random" />
	<vehicle id="v359" depart="73.58" route="r815" type="CarDefault" departLane="random" />
	<vehicle id="v10" depart="74.07" route="r812" type="CarDefault" departLane="random" />
	<vehicle id="v463" depart="74.07" route="r813" type="CarDefault" departLane="random" />
	<vehicle id="v191" depart="75.0" route="r814" type="CarDefault" departLane="random" />
	<vehicle id="v192" depart="78.41" route="r814" type="CarDefault" departLane="random" />
	<vehicle id="v360" depart="79.25" route="r815" type="CarDefault" departLane="random" />
	<vehicle id="v11" depart="81.48" route="r812" type="CarDefault" departLane="random" />
	<vehicle id="v464" depart="81.48" route="r813" type="CarDefault" departLane="random" />
	<vehicle id="v193" depart="81.82" route="r814" type="CarDefault" departLane="random" />
	<vehicle id="v361" depart="84.91" route="r815" type="CarDefault" departLane="random" />
	<vehicle id="v194" depart="85.23" route="r814" type="CarDefault" departLane="random" />
	<vehicle id="v195" depart="88.64" route="r814" type="CarDefault" departLane="random" />
	<vehicle id="v12" depart="88.89" route="r812" type="CarDefault" departLane="random" />
	<vehicle id="v465" depart="88.89" route="r813" type="CarDefault" departLane="random" />
	<vehicle id="v362" depart="90.57" route="r815" type="CarDefault" departLane="random" />
	<vehicle id="v196" depart="92.05" route="r814" type="CarDefault" departLane="random" />
	<vehicle id="v197" depart="95.45" route="r814" type="CarDefault" departLane="random" />
	<vehicle id="v363" depart="96.23" route="r815" type="CarDefault" departLane="random" />
	<vehicle id="v13" depart="96.3" route="r812" type="CarDefault" departLane="random" />
	<vehicle id="v466" depart="96.3" route="r813" type="CarDefault" departLane="random" />
	<vehicle id="v198" depart="98.86" route="r814" type="CarDefault" departLane="random" />
	<vehicle id="v364" depart="101.89" route="r815" type="CarDefault" departLane="random" />
	<vehicle id="v199" depart="102.27" route="r814" type="CarDefault" departLane="random" />
	<vehicle id="v14" depart="103.7" route="r812" type="CarDefault" departLane="random" />
	<vehicle id="v467" depart="103.7" route="r813" type="CarDefault" departLane="random" />
	<vehicle id="v200" depart="105.68" route="r814" type="CarDefault" departLane="random" />
	<vehicle id="v365" depart="107.55" route="r815" type="CarDefault" departLane="random" />
	<vehicle id="v201" depart="109.09" route="r814" type="CarDefault" departLane="random" />
	<vehicle id="v15" depart="111.11" route="r812" type="CarDefault" departLane="random" />
	<vehicle id="v468" depart="111.11" route="r813" type="CarDefault" departLane="random" />
	<vehicle id="v202" depart="112.5" route="r814" type="CarDefault" departLane="random" />
	<vehicle id="v366" depart="113.21" route="r815" type="CarDefault" departLane="random" />
	<vehicle id="v203" depart="115.91" route="r814" type="CarDefault" departLane="random" />
	<vehicle id="v16" depart="118.52" route="r812" type="CarDefault" departLane="random" />
	<vehicle id="v469" depart="118.52" route="r813" type="CarDefault" departLane="random" />
	<vehicle id="v367" depart="118.87" route="r815" type="CarDefault" departLane="random" />
	<vehicle id="v204" depart="119.32" route="r814" type="CarDefault" departLane="random" />
	<vehicle id="v28" depart="120" route="sr459" type="CarDefault" departLane="random" />
	<vehicle id="v205" depart="122.73" route="sr460" type="CarDefault" departLane="random" />
	<vehicle id="v368" depart="124.53" route="sr461" type="CarDefault" departLane="random" />
	<vehicle id="v29" depart="125" route="sr459" type="CarDefault" departLane="random" />
	<vehicle id="v17" depart="125.93" route="sr459" type="CarDefault" departLane="random" />
	<vehicle id="v470" depart="125.93" route="sr462" type="CarDefault" departLane="random" />
	<vehicle id="v206" depart="126.14" route="sr460" type="CarDefault" departLane="random" />
	<vehicle id="v207" depart="129.55" route="sr460" type="CarDefault" departLane="random" />
	<vehicle id="v369" depart="130.19" route="sr461" type="CarDefault" departLane="random" />
	<vehicle id="v208" depart="132.95" route="sr460" type="CarDefault" departLane="random" />
	<vehicle id="v18" depart="133.33" route="sr459" type="CarDefault" departLane="random" />
	<vehicle id="v471" depart="133.33" route="sr462" type="CarDefault" departLane="random" />
	<vehicle id="v370" depart="135.85" route="sr461" type="CarDefault" departLane="random" />
	<vehicle id="v209" depart="136.36" route="sr460" type="CarDefault" departLane="random" />
	<vehicle id="v210" depart="139.77" route="sr460" type="CarDefault" departLane="random" />
	<vehicle id="v486" depart="140" route="sr462" type="CarDefault" departLane="random" />
	<vehicle id="v19" depart="140.74" route="sr459" type="CarDefault" departLane="random" />
	<vehicle id="v472" depart="140.74" route="sr462" type="CarDefault" departLane="random" />
	<vehicle id="v371" depart="141.51" route="sr461" type="CarDefault" departLane="random" />
	<vehicle id="v211" depart="143.18" route="sr460" type="CarDefault" departLane="random" />
	<vehicle id="v212" depart="146.59" route="sr460" type="CarDefault" departLane="random" />
	<vehicle id="v372" depart="147.17" route="sr461" type="CarDefault" departLane="random" />
	<vehicle id="v20" depart="148.15" route="sr459" type="CarDefault" departLane="random" />
	<vehicle id="v473" depart="148.15" route="sr462" type="CarDefault" departLane="random" />
	<vehicle id="v213" depart="150.0" route="sr460" type="CarDefault" departLane="random" />
	<vehicle id="v373" depart="152.83" route="sr461" type="CarDefault" departLane="random" />
	<vehicle id="v214" depart="153.41" route="sr460" type="CarDefault" departLane="random" />
	<vehicle id="v31" depart="154" route="sr459" type="CarDefault" departLane="random" />
	<vehicle id="v481" depart="155" route="sr462" type="CarDefault" departLane="random" />
	<vehicle id="v21" depart="155.56" route="sr459" type="CarDefault" departLane="random" />
	<vehicle id="v474" depart="155.56" route="sr462" type="CarDefault" departLane="random" />
	<vehicle id="v215" depart="156.82" route="sr460" type="CarDefault" departLane="random" />
	<vehicle id="v374" depart="158.49" route="sr461" type="CarDefault" departLane="random" />
	<vehicle id="v216" depart="160.23" route="sr460" type="CarDefault" departLane="random" />
	<vehicle id="v22" depart="162.96" route="sr459" type="CarDefault" departLane="random" />
	<vehicle id="v475" depart="162.96" route="sr462" type="CarDefault" departLane="random" />
	<vehicle id="v217" depart="163.64" route="sr460" type="CarDefault" departLane="random" />
	<vehicle id="v375" depart="164.15" route="sr461" type="CarDefault" departLane="random" />
	<vehicle id="v218" depart="167.05" route="sr460" type="CarDefault" departLane="random" />
	<vehicle id="v376" depart="169.81" route="sr461" type="CarDefault" departLane="random" />
	<vehicle id="v23" depart="170.37" route="sr459" type="CarDefault" departLane="random" />
	<vehicle id="v476" depart="170.37" route="sr462" type="CarDefault" departLane="random" />
	<vehicle id="v219" depart="170.45" route="sr460" type="CarDefault" departLane="random" />
	<vehicle id="v32" depart="171" route="sr459" type="CarDefault" departLane="random" />
	<vehicle id="v482" depart="173" route="sr462" type="CarDefault" departLane="random" />
	<vehicle id="v220" depart="173.86" route="sr460" type="CarDefault" departLane="random" />
	<vehicle id="v377" depart="175.47" route="sr461" type="CarDefault" departLane="random" />
	<vehicle id="v221" depart="177.27" route="sr460" type="CarDefault" departLane="random" />
	<vehicle id="v24" depart="177.78" route="sr459" type="CarDefault" departLane="random" />
	<vehicle id="v477" depart="177.78" route="sr462" type="CarDefault" departLane="random" />
	<vehicle id="v222" depart="180.68" route="sr460" type="CarDefault" departLane="random" />
	<vehicle id="v378" depart="181.13" route="sr461" type="CarDefault" departLane="random" />
	<vehicle id="v223" depart="184.09" route="sr460" type="CarDefault" departLane="random" />
	<vehicle id="v25" depart="185.19" route="sr459" type="CarDefault" departLane="random" />
	<vehicle id="v478" depart="185.19" route="sr462" type="CarDefault" departLane="random" />
	<vehicle id="v379" depart="186.79" route="sr461" type="CarDefault" departLane="random" />
	<vehicle id="v224" depart="187.5" route="sr460" type="CarDefault" departLane="random" />
	<vehicle id="v225" depart="190.91" route="sr460" type="CarDefault" departLane="random" />
	<vehicle id="v380" depart="192.45" route="sr461" type="CarDefault" departLane="random" />
	<vehicle id="v26" depart="192.59" route="sr459" type="CarDefault" departLane="random" />
	<vehicle id="v479" depart="192.59" route="sr462" type="CarDefault" departLane="random" />
	<vehicle id="v483" depart="193" route="sr462" type="CarDefault" departLane="random" />
	<vehicle id="v484" depart="194" route="sr462" type="CarDefault" departLane="random" />
	<vehicle id="v226" depart="194.32" route="sr460" type="CarDefault" departLane="random" />
	<vehicle id="v30" depart="197" route="sr459" type="CarDefault" departLane="random" />
	<vehicle id="v227" depart="197.73" route="sr460" type="CarDefault" departLane="random" />
	<vehicle id="v381" depart="198.11" route="sr461" type="CarDefault" departLane="random" />
	<vehicle id="v485" depart="199" route="sr462" type="CarDefault" departLane="random" />
	<vehicle id="v27" depart="200.0" route="sr459" type="CarDefault" departLane="random" />
	<vehicle id="v33" depart="200.0" route="sr459" type="CarDefault" departLane="random" />
	<vehicle id="v480" depart="200.0" route="sr462" type="CarDefault" departLane="random" />
	<vehicle id="v487" depart="200.0" route="sr462" type="CarDefault" departLane="random" />
	<vehicle id="v228" depart="201.14" route="sr460" type="CarDefault" departLane="random" />
	<vehicle id="v382" depart="203.77" route="sr461" type="CarDefault" departLane="random" />
	<vehicle id="v229" depart="204.55" route="sr460" type="CarDefault" departLane="random" />
	<vehicle id="v34" depart="205.13" route="sr459" type="CarDefault" departLane="random" />
	<vehicle id="v488" depart="205.13" route="sr462" type="CarDefault" departLane="random" />
	<vehicle id="v230" depart="207.95" route="sr460" type="CarDefault" departLane="random" />
	<vehicle id="v383" depart="209.43" route="sr461" type="CarDefault" departLane="random" />
	<vehicle id="v35" depart="210.26" route="sr459" type="CarDefault" departLane="random" />
	<vehicle id="v489" depart="210.26" route="sr462" type="CarDefault" departLane="random" />
	<vehicle id="v231" depart="211.36" route="sr460" type="CarDefault" departLane="random" />
	<vehicle id="v232" depart="214.77" route="sr460" type="CarDefault" departLane="random" />
	<vehicle id="v384" depart="215.09" route="sr461" type="CarDefault" departLane="random" />
	<vehicle id="v36" depart="215.38" route="sr459" type="CarDefault" departLane="random" />
	<vehicle id="v490" depart="215.38" route="sr462" type="CarDefault" departLane="random" />
	<vehicle id="v233" depart="218.18" route="sr460" type="CarDefault" departLane="random" />
	<vehicle id="v37" depart="220.51" route="sr459" type="CarDefault" departLane="random" />
	<vehicle id="v491" depart="220.51" route="sr462" type="CarDefault" departLane="random" />
	<vehicle id="v385" depart="220.75" route="sr461" type="CarDefault" departLane="random" />
	<vehicle id="v234" depart="221.59" route="sr460" type="CarDefault" departLane="random" />
	<vehicle id="v235" depart="225.0" route="sr460" type="CarDefault" departLane="random" />
	<vehicle id="v38" depart="225.64" route="sr459" type="CarDefault" departLane="random" />
	<vehicle id="v492" depart="225.64" route="sr462" type="CarDefault" departLane="random" />
	<vehicle id="v386" depart="226.42" route="sr461" type="CarDefault" departLane="random" />
	<vehicle id="v236" depart="228.41" route="sr460" type="CarDefault" departLane="random" />
	<vehicle id="v39" depart="230.77" route="sr459" type="CarDefault" departLane="random" />
	<vehicle id="v493" depart="230.77" route="sr462" type="CarDefault" departLane="random" />
	<vehicle id="v237" depart="231.82" route="sr460" type="CarDefault" departLane="random" />
	<vehicle id="v387" depart="232.08" route="sr461" type="CarDefault" departLane="random" />
	<vehicle id="v238" depart="235.23" route="sr460" type="CarDefault" departLane="random" />
	<vehicle id="v40" depart="235.9" route="sr459" type="CarDefault" departLane="random" />
	<vehicle id="v494" depart="235.9" route="sr462" type="CarDefault" departLane="random" />
	<vehicle id="v388" depart="237.74" route="sr461" type="CarDefault" departLane="random" />
	<vehicle id="v239" depart="238.64" route="sr460" type="CarDefault" departLane="random" />
	<vehicle id="v41" depart="241.03" route="sr459" type="CarDefault" departLane="random" />
	<vehicle id="v495" depart="241.03" route="sr462" type="CarDefault" departLane="random" />
	<vehicle id="v240" depart="242.05" route="sr460" type="CarDefault" departLane="random" />
	<vehicle id="v389" depart="243.4" route="sr461" type="CarDefault" departLane="random" />
	<vehicle id="v241" depart="245.45" route="sr460" type="CarDefault" departLane="random" />
	<vehicle id="v42" depart="246.15" route="sr459" type="CarDefault" departLane="random" />
	<vehicle id="v496" depart="246.15" route="sr462" type="CarDefault" departLane="random" />
	<vehicle id="v242" depart="248.86" route="sr460" type="CarDefault" departLane="random" />
	<vehicle id="v390" depart="249.06" route="sr461" type="CarDefault" departLane="random" />
	<vehicle id="v43" depart="251.28" route="sr459" type="CarDefault" departLane="random" />
	<vehicle id="v497" depart="251.28" route="sr462" type="CarDefault" departLane="random" />
	<vehicle id="v243" depart="252.27" route="sr460" type="CarDefault" departLane="random" />
	<vehicle id="v391" depart="254.72" route="sr461" type="CarDefault" departLane="random" />
	<vehicle id="v244" depart="255.68" route="sr460" type="CarDefault" departLane="random" />
	<vehicle id="v44" depart="256.41" route="sr459" type="CarDefault" departLane="random" />
	<vehicle id="v498" depart="256.41" route="sr462" type="CarDefault" departLane="random" />
	<vehicle id="v245" depart="259.09" route="sr460" type="CarDefault" departLane="random" />
	<vehicle id="v392" depart="260.38" route="sr461" type="CarDefault" departLane="random" />
	<vehicle id="v45" depart="261.54" route="sr459" type="CarDefault" departLane="random" />
	<vehicle id="v499" depart="261.54" route="sr462" type="CarDefault" departLane="random" />
	<vehicle id="v246" depart="262.5" route="sr460" type="CarDefault" departLane="random" />
	<vehicle id="v247" depart="265.91" route="sr460" type="CarDefault" departLane="random" />
	<vehicle id="v393" depart="266.04" route="sr461" type="CarDefault" departLane="random" />
	<vehicle id="v46" depart="266.67" route="sr459" type="CarDefault" departLane="random" />
	<vehicle id="v500" depart="266.67" route="sr462" type="CarDefault" departLane="random" />
	<vehicle id="v248" depart="269.32" route="sr460" type="CarDefault" departLane="random" />
	<vehicle id="v394" depart="271.7" route="sr461" type="CarDefault" departLane="random" />
	<vehicle id="v47" depart="271.79" route="sr459" type="CarDefault" departLane="random" />
	<vehicle id="v501" depart="271.79" route="sr462" type="CarDefault" departLane="random" />
	<vehicle id="v249" depart="272.73" route="sr460" type="CarDefault" departLane="random" />
	<vehicle id="v250" depart="276.14" route="sr460" type="CarDefault" departLane="random" />
	<vehicle id="v48" depart="276.92" route="sr459" type="CarDefault" departLane="random" />
	<vehicle id="v502" depart="276.92" route="sr462" type="CarDefault" departLane="random" />
	<vehicle id="v395" depart="277.36" route="sr461" type="CarDefault" departLane="random" />
	<vehicle id="v251" depart="279.55" route="sr460" type="CarDefault" departLane="random" />
	<vehicle id="v49" depart="282.05" route="sr459" type="CarDefault" departLane="random" />
	<vehicle id="v503" depart="282.05" route="sr462" type="CarDefault" departLane="random" />
	<vehicle id="v252" depart="282.95" route="sr460" type="CarDefault" departLane="random" />
	<vehicle id="v396" depart="283.02" route="sr461" type="CarDefault" departLane="random" />
	<vehicle id="v253" depart="286.36" route="sr460" type="CarDefault" departLane="random" />
	<vehicle id="v50" depart="287.18" route="sr459" type="CarDefault" departLane="random" />
	<vehicle id="v504" depart="287.18" route="sr462" type="CarDefault" departLane="random" />
	<vehicle id="v397" depart="288.68" route="sr461" type="CarDefault" departLane="random" />
	<vehicle id="v254" depart="289.77" route="sr460" type="CarDefault" departLane="random" />
	<vehicle id="v51" depart="292.31" route="sr459" type="CarDefault" departLane="random" />
	<vehicle id="v505" depart="292.31" route="sr462" type="CarDefault" departLane="random" />
	<vehicle id="v255" depart="293.18" route="sr460" type="CarDefault" departLane="random" />
	<vehicle id="v398" depart="294.34" route="sr461" type="CarDefault" departLane="random" />
	<vehicle id="v256" depart="296.59" route="sr460" type="CarDefault" departLane="random" />
	<vehicle id="v52" depart="297.44" route="sr459" type="CarDefault" departLane="random" />
	<vehicle id="v506" depart="297.44" route="sr462" type="CarDefault" departLane="random" />
	<vehicle id="v257" depart="300.0" route="sr460" type="CarDefault" departLane="random" />
	<vehicle id="v399" depart="300.0" route="sr461" type="CarDefault" departLane="random" />
	<vehicle id="v53" depart="302.56" route="sr459" type="CarDefault" departLane="random" />
	<vehicle id="v507" depart="302.56" route="sr462" type="CarDefault" departLane="random" />
	<vehicle id="v258" depart="303.41" route="sr460" type="CarDefault" departLane="random" />
	<vehicle id="v400" depart="305.66" route="sr461" type="CarDefault" departLane="random" />
	<vehicle id="v259" depart="306.82" route="sr460" type="CarDefault" departLane="random" />
	<vehicle id="v537" depart="307" route="sr462" type="CarDefault" departLane="random" />
	<vehicle id="v54" depart="307.69" route="sr459" type="CarDefault" departLane="random" />
	<vehicle id="v508" depart="307.69" route="sr462" type="CarDefault" departLane="random" />
	<vehicle id="v260" depart="310.23" route="sr460" type="CarDefault" departLane="random" />
	<vehicle id="v86" depart="311" route="sr459" type="CarDefault" departLane="random" />
	<vehicle id="v401" depart="311.32" route="sr461" type="CarDefault" departLane="random" />
	<vehicle id="v55" depart="312.82" route="sr459" type="CarDefault" departLane="random" />
	<vehicle id="v509" depart="312.82" route="sr462" type="CarDefault" departLane="random" />
	<vehicle id="v261" depart="313.64" route="sr460" type="CarDefault" departLane="random" />
	<vehicle id="v402" depart="316.98" route="sr461" type="CarDefault" departLane="random" />
	<vehicle id="v530" depart="317" route="sr462" type="CarDefault" departLane="random" />
	<vehicle id="v532" depart="317" route="sr462" type="CarDefault" departLane="random" />
	<vehicle id="v262" depart="317.05" route="sr460" type="CarDefault" departLane="random" />
	<vehicle id="v56" depart="317.95" route="sr459" type="CarDefault" departLane="random" />
	<vehicle id="v510" depart="317.95" route="sr462" type="CarDefault" departLane="random" />
	<vehicle id="v533" depart="318" route="sr462" type="CarDefault" departLane="random" />
	<vehicle id="v263" depart="320.45" route="sr460" type="CarDefault" departLane="random" />
	<vehicle id="v403" depart="322.64" route="sr461" type="CarDefault" departLane="random" />
	<vehicle id="v57" depart="323.08" route="sr459" type="CarDefault" departLane="random" />
	<vehicle id="v511" depart="323.08" route="sr462" type="CarDefault" departLane="random" />
	<vehicle id="v264" depart="323.86" route="sr460" type="CarDefault" departLane="random" />
	<vehicle id="v82" depart="325" route="sr459" type="CarDefault" departLane="random" />
	<vehicle id="v265" depart="327.27" route="sr460" type="CarDefault" departLane="random" />
	<vehicle id="v58" depart="328.21" route="sr459" type="CarDefault" departLane="random" />
	<vehicle id="v512" depart="328.21" route="sr462" type="CarDefault" departLane="random" />
	<vehicle id="v404" depart="328.3" route="sr461" type="CarDefault" departLane="random" />
	<vehicle id="v266" depart="330.68" route="sr460" type="CarDefault" departLane="random" />
	<vehicle id="v59" depart="333.33" route="sr459" type="CarDefault" departLane="random" />
	<vehicle id="v513" depart="333.33" route="sr462" type="CarDefault" departLane="random" />
	<vehicle id="v405" depart="333.96" route="sr461" type="CarDefault" departLane="random" />
	<vehicle id="v539" depart="334" route="sr462" type="CarDefault" departLane="random" />
	<vehicle id="v267" depart="334.09" route="sr460" type="CarDefault" departLane="random" />
	<vehicle id="v81" depart="335" route="sr459" type="CarDefault" departLane="random" />
	<vehicle id="v268" depart="337.5" route="sr460" type="CarDefault" departLane="random" />
	<vehicle id="v79" depart="338" route="sr459" type="CarDefault" departLane="random" />
	<vehicle id="v60" depart="338.46" route="sr459" type="CarDefault" departLane="random" />
	<vehicle id="v514" depart="338.46" route="sr462" type="CarDefault" departLane="random" />
	<vehicle id="v406" depart="339.62" route="sr461" type="CarDefault" departLane="random" />
	<vehicle id="v269" depart="340.91" route="sr460" type="CarDefault" departLane="random" />
	<vehicle id="v61" depart="343.59" route="sr459" type="CarDefault" departLane="random" />
	<vehicle id="v515" depart="343.59" route="sr462" type="CarDefault" departLane="random" />
	<vehicle id="v270" depart="344.32" route="sr460" type="CarDefault" departLane="random" />
	<vehicle id="v80" depart="345" route="sr459" type="CarDefault" departLane="random" />
	<vehicle id="v407" depart="345.28" route="sr461" type="CarDefault" departLane="random" />
	<vehicle id="v271" depart="347.73" route="sr460" type="CarDefault" departLane="random" />
	<vehicle id="v62" depart="348.72" route="sr459" type="CarDefault" departLane="random" />
	<vehicle id="v516" depart="348.72" route="sr462" type="CarDefault" departLane="random" />
	<vehicle id="v408" depart="350.94" route="sr461" type="CarDefault" departLane="random" />
	<vehicle id="v272" depart="351.14" route="sr460" type="CarDefault" departLane="random" />
	<vehicle id="v63" depart="353.85" route="sr459" type="CarDefault" departLane="random" />
	<vehicle id="v517" depart="353.85" route="sr462" type="CarDefault" departLane="random" />
	<vehicle id="v273" depart="354.55" route="sr460" type="CarDefault" departLane="random" />
	<vehicle id="v409" depart="356.6" route="sr461" type="CarDefault" departLane="random" />
	<vehicle id="v274" depart="357.95" route="sr460" type="CarDefault" departLane="random" />
	<vehicle id="v64" depart="358.97" route="sr459" type="CarDefault" departLane="random" />
	<vehicle id="v518" depart="358.97" route="sr462" type="CarDefault" departLane="random" />
	<vehicle id="v534" depart="360" route="sr462" type="CarDefault" departLane="random" />
	<vehicle id="v275" depart="361.36" route="sr460" type="CarDefault" departLane="random" />
	<vehicle id="v410" depart="362.26" route="sr461" type="CarDefault" departLane="random" />
	<vehicle id="v77" depart="363" route="sr459" type="CarDefault" departLane="random" />
	<vehicle id="v76" depart="364" route="sr459" type="CarDefault" departLane="random" />
	<vehicle id="v65" depart="364.1" route="sr459" type="CarDefault" departLane="random" />
	<vehicle id="v519" depart="364.1" route="sr462" type="CarDefault" departLane="random" />