<?xml version='1.0' encoding='utf-8'?>
<routes>
	<vType accel="3.0" decel="6.0" id="CarDefault" length="5.0" minGap="2.5" maxSpeed="50.0" sigma="0.5" />
	<route id="r272" edges="488 984 985 989 990 415 233 886 774 502 18 17 16 15 62 38 549 891 766 1018 1019 1020 1021 1022 898 961 1017 960 706" fromJunction="357" toJunction="248" />
	<route id="sr1067" edges="1058 1023 1024 997 707 787 788 863 853 633 634 635 636 864 865 1012 758 759 760" fromJunction="388" toJunction="87" />
	<route id="sr1066" edges="280 65 945 946 943 944 811 928 929 930 935 426 425 424 423 400 399 404 403 82 585 111 563 14 1026 1027 446 445 447 758 759 760" fromJunction="316" toJunction="87" />
	<route id="sr1068" edges="488 975 976 743 744 745 741 742 430 210 12 11 341 627 628 967 968 957 958 511 512 513 890 891 766 1018 1019 1020 1021 1022 898 961 1017 960 706" fromJunction="357" toJunction="248" />
	<route id="sr1069" edges="954 658 659 910 494 417 416 148 147 146 145 144 1030 1031 1032 336 433 837 889 538 1010 831 832" fromJunction="77" toJunction="241" />
	<route id="r271" edges="794 919 920 923 924 915 916 750 751 964 741 742 430 210 12 11 341 18 17 16 15 14 127 126 125 357 356 355 354 314 313 679 680 666 664 153 398" fromJunction="292" toJunction="77" />
	<route id="r273" edges="280 65 945 946 943 944 267 266 311 290 375 331 56 55 54 53 52 230 136 135 134 133 217 216 215 208 669 670 671 679 680 681 910 494 417 416 148 147 146 145 645 977 978 759 760" fromJunction="316" toJunction="87" />
	<route id="r270" edges="1058 1023 1024 997 707 787 788 217 216 215 208 669 670 671 679 680 681 910 494 417 416 148 147 146 145 645 977 978 759 760" fromJunction="388" toJunction="87" />
	<vehicle id="v0" depart="0.0" route="r273" type="CarDefault" departLane="random" />
	<vehicle id="v32" depart="0.0" route="r270" type="CarDefault" departLane="random" />
	<vehicle id="v66" depart="0.0" route="r272" type="CarDefault" departLane="random" />
	<vehicle id="v89" depart="0.0" route="sr1069" type="CarDefault" departLane="random" />
	<vehicle id="v125" depart="0" route="r271" type="CarDefault" departLane="random" />
	<vehicle id="v124" depart="3" route="r271" type="CarDefault" departLane="random" />
	<vehicle id="v67" depart="5.45" route="r272" type="CarDefault" departLane="random" />
	<vehicle id="v1" depart="10.0" route="r273" type="CarDefault" departLane="random" />
	<vehicle id="v33" depart="10.0" route="r270" type="CarDefault" departLane="random" />
	<vehicle id="v90" depart="10.0" route="sr1069" type="CarDefault" departLane="random" />
	<vehicle id="v68" depart="10.91" route="r272" type="CarDefault" departLane="random" />
	<vehicle id="v126" depart="13" route="r271" type="CarDefault" departLane="random" />
	<vehicle id="v127" depart="15" route="r271" type="CarDefault" departLane="random" />
	<vehicle id="v69" depart="16.36" route="r272" type="CarDefault" departLane="random" />
	<vehicle id="v2" depart="20.0" route="r273" type="CarDefault" departLane="random" />
	<vehicle id="v34" depart="20.0" route="r270" type="CarDefault" departLane="random" />
	<vehicle id="v91" depart="20.0" route="sr1069" type="CarDefault" departLane="random" />
	<vehicle id="v133" depart="20" route="r271" type="CarDefault" departLane="random" />
	<vehicle id="v5" depart="21" route="r273" type="CarDefault" departLane="random" />
	<vehicle id="v70" depart="21.82" route="r272" type="CarDefault" departLane="random" />
	<vehicle id="v131" depart="22" route="r271" type="CarDefault" departLane="random" />
	<vehicle id="v94" depart="23" route="sr1069" type="CarDefault" departLane="random" />
	<vehicle id="v95" depart="25" route="sr1069" type="CarDefault" departLane="random" />
	<vehicle id="v130" depart="26" route="r271" type="CarDefault" departLane="random" />
	<vehicle id="v129" depart="27" route="r271" type="CarDefault" departLane="random" />
	<vehicle id="v71" depart="27.27" route="r272" type="CarDefault" departLane="random" />
	<vehicle id="v3" depart="30.0" route="r273" type="CarDefault" departLane="random" />
	<vehicle id="v35" depart="30.0" route="r270" type="CarDefault" departLane="random" />
	<vehicle id="v92" depart="30.0" route="sr1069" type="CarDefault" departLane="random" />
	<vehicle id="v135" depart="31" route="r271" type="CarDefault" departLane="random" />
	<vehicle id="v72" depart="32.73" route="r272" type="CarDefault" departLane="random" />
	<vehicle id="v134" depart="35" route="r271" type="CarDefault" departLane="random" />
	<vehicle id="v132" depart="36" route="r271" type="CarDefault" departLane="random" />
	<vehicle id="v37" depart="38" route="r270" type="CarDefault" departLane="random" />
	<vehicle id="v73" depart="38.18" route="r272" type="CarDefault" departLane="random" />
	<vehicle id="v128" depart="39" route="r271" type="CarDefault" departLane="random" />
	<vehicle id="v4" depart="40.0" route="r273" type="CarDefault" departLane="random" />
	<vehicle id="v6" depart="40.0" route="r273" type="CarDefault" departLane="random" />
	<vehicle id="v36" depart="40.0" route="r270" type="CarDefault" departLane="random" />
	<vehicle id="v38" depart="40.0" route="r270" type="CarDefault" departLane="random" />
	<vehicle id="v93" depart="40.0" route="sr1069" type="CarDefault" departLane="random" />
	<vehicle id="v96" depart="40.0" route="sr1069" type="CarDefault" departLane="random" />
	<vehicle id="v74" depart="43.64" route="r272" type="CarDefault" departLane="random" />
	<vehicle id="v138" depart="45" route="r271" type="CarDefault" departLane="random" />
	<vehicle id="v139" depart="45" route="r271" type="CarDefault" departLane="random" />
	<vehicle id="v7" depart="45.71" route="r273" type="CarDefault" departLane="random" />
	<vehicle id="v39" depart="45.71" route="r270" type="CarDefault" departLane="random" />
	<vehicle id="v97" depart="45.71" route="sr1069" type="CarDefault" departLane="random" />
	<vehicle id="v75" depart="49.09" route="r272" type="CarDefault" departLane="random" />
	<vehicle id="v8" depart="51.43" route="r273" type="CarDefault" departLane="random" />
	<vehicle id="v40" depart="51.43" route="r270" type="CarDefault" departLane="random" />
	<vehicle id="v98" depart="51.43" route="sr1069" type="CarDefault" departLane="random" />
	<vehicle id="v140" depart="52" route="r271" type="CarDefault" departLane="random" />
	<vehicle id="v137" depart="53" route="r271" type="CarDefault" departLane="random" />
	<vehicle id="v76" depart="54.55" route="r272" type="CarDefault" departLane="random" />
	<vehicle id="v9" depart="57.14" route="r273" type="CarDefault" departLane="random" />
	<vehicle id="v41" depart="57.14" route="r270" type="CarDefault" departLane="random" />
	<vehicle id="v99" depart="57.14" route="sr1069" type="CarDefault" departLane="random" />
	<vehicle id="v136" depart="58" route="r271" type="CarDefault" departLane="random" />
	<vehicle id="v77" depart="60.0" route="r272" type="CarDefault" departLane="random" />
	<vehicle id="v144" depart="60" route="r271" type="CarDefault" departLane="random" />
	<vehicle id="v146" depart="60" route="r271" type="CarDefault" departLane="random" />
	<vehicle id="v143" depart="61" route="r271" type="CarDefault" departLane="random" />
	<vehicle id="v47" depart="62" route="r270" type="CarDefault" departLane="random" />
	<vehicle id="v105" depart="62" route="sr1069" type="CarDefault" departLane="random" />
	<vehicle id="v151" depart="62" route="r271" type="CarDefault" departLane="random" />
	<vehicle id="v10" depart="62.86" route="r273" type="CarDefault" departLane="random" />
	<vehicle id="v42" depart="62.86" route="r270" type="CarDefault" departLane="random" />
	<vehicle id="v100" depart="62.86" route="sr1069" type="CarDefault" departLane="random" />
	<vehicle id="v150" depart="63" route="r271" type="CarDefault" departLane="random" />
	<vehicle id="v147" depart="64" route="r271" type="CarDefault" departLane="random" />
	<vehicle id="v78" depart="65.45" route="r272" type="CarDefault" departLane="random" />
	<vehicle id="v142" depart="67" route="r271" type="CarDefault" departLane="random" />
	<vehicle id="v11" depart="68.57" route="r273" type="CarDefault" departLane="random" />
	<vehicle id="v43" depart="68.57" route="r270" type="CarDefault" departLane="random" />
	<vehicle id="v101" depart="68.57" route="sr1069" type="CarDefault" departLane="random" />
	<vehicle id="v79" depart="70.91" route="r272" type="CarDefault" departLane="random" />
	<vehicle id="v15" depart="71" route="r273" type="CarDefault" departLane="random" />
	<vehicle id="v145" depart="74" route="r271" type="CarDefault" departLane="random" />
	<vehicle id="v12" depart="74.29" route="r273" type="CarDefault" departLane="random" />
	<vehicle id="v44" depart="74.29" route="r270" type="CarDefault" departLane="random" />
	<vehicle id="v102" depart="74.29" route="sr1069" type="CarDefault" departLane="random" />
	<vehicle id="v14" depart="75" route="r273" type="CarDefault" departLane="random" />
	<vehicle id="v46" depart="75" route="r270" type="CarDefault" departLane="random" />
	<vehicle id="v106" depart="75" route="sr1069" type="CarDefault" departLane="random" />
	<vehicle id="v148" depart="75" route="r271" type="CarDefault" departLane="random" />
	<vehicle id="v80" depart="76.36" route="r272" type="CarDefault" departLane="random" />
	<vehicle id="v141" depart="78" route="r271" type="CarDefault" departLane="random" />
	<vehicle id="v149" depart="78" route="r271" type="CarDefault" departLane="random" />
	<vehicle id="v48" depart="79" route="r270" type="CarDefault" departLane="random" />
	<vehicle id="v104" depart="79" route="sr1069" type="CarDefault" departLane="random" />
	<vehicle id="v13" depart="80.0" route="r273" type="CarDefault" departLane="random" />
	<vehicle id="v16" depart="80.0" route="r273" type="CarDefault" departLane="random" />
	<vehicle id="v45" depart="80.0" route="r270" type="CarDefault" departLane="random" />
	<vehicle id="v49" depart="80.0" route="r270" type="CarDefault" departLane="random" />
	<vehicle id="v103" depart="80.0" route="sr1069" type="CarDefault" departLane="random" />
	<vehicle id="v107" depart="80.0" route="sr1069" type="CarDefault" departLane="random" />
	<vehicle id="v81" depart="81.82" route="r272" type="CarDefault" departLane="random" />
	<vehicle id="v157" depart="82" route="r271" type="CarDefault" departLane="random" />
	<vehicle id="v17" depart="83.33" route="r273" type="CarDefault" departLane="random" />
	<vehicle id="v50" depart="83.33" route="r270" type="CarDefault" departLane="random" />
	<vehicle id="v108" depart="83.33" route="sr1069" type="CarDefault" departLane="random" />
	<vehicle id="v156" depart="85" route="r271" type="CarDefault" departLane="random" />
	<vehicle id="v18" depart="86.67" route="r273" type="CarDefault" departLane="random" />
	<vehicle id="v51" depart="86.67" route="r270" type="CarDefault" departLane="random" />
	<vehicle id="v109" depart="86.67" route="sr1069" type="CarDefault" departLane="random" />
	<vehicle id="v82" depart="87.27" route="r272" type="CarDefault" departLane="random" />
	<vehicle id="v19" depart="90.0" route="r273" type="CarDefault" departLane="random" />
	<vehicle id="v52" depart="90.0" route="r270" type="CarDefault" departLane="random" />
	<vehicle id="v110" depart="90.0" route="sr1069" type="CarDefault" departLane="random" />
	<vehicle id="v154" depart="91" route="r271" type="CarDefault" departLane="random" />
	<vehicle id="v83" depart="92.73" route="r272" type="CarDefault" departLane="random" />
	<vehicle id="v155" depart="93" route="r271" type="CarDefault" departLane="random" />
	<vehicle id="v20" depart="93.33" route="r273" type="CarDefault" departLane="random" />
	<vehicle id="v53" depart="93.33" route="r270" type="CarDefault" departLane="random" />
	<vehicle id="v111" depart="93.33" route="sr1069" type="CarDefault" departLane="random" />
	<vehicle id="v152" depart="96" route="r271" type="CarDefault" departLane="random" />
	<vehicle id="v153" depart="96" route="r271" type="CarDefault" departLane="random" />
	<vehicle id="v21" depart="96.67" route="r273" type="CarDefault" departLane="random" />
	<vehicle id="v54" depart="96.67" route="r270" type="CarDefault" departLane="random" />
	<vehicle id="v112" depart="96.67" route="sr1069" type="CarDefault" departLane="random" />
	<vehicle id="v84" depart="98.18" route="r272" type="CarDefault" departLane="random" />
	<vehicle id="v22" depart="100.0" route="r273" type="CarDefault" departLane="random" />
	<vehicle id="v55" depart="100.0" route="r270" type="CarDefault" departLane="random" />
	<vehicle id="v62" depart="100" route="r270" type="CarDefault" departLane="random" />
	<vehicle id="v113" depart="100.0" route="sr1069" type="CarDefault" departLane="random" />
	<vehicle id="v120" depart="102" route="sr1069" type="CarDefault" departLane="random" />
	<vehicle id="v23" depart="103.33" route="r273" type="CarDefault" departLane="random" />
	<vehicle id="v56" depart="103.33" route="r270" type="CarDefault" departLane="random" />
	<vehicle id="v114" depart="103.33" route="sr1069" type="CarDefault" departLane="random" />
	<vehicle id="v85" depart="103.64" route="r272" type="CarDefault" departLane="random" />
	<vehicle id="v29" depart="104" route="r273" type="CarDefault" departLane="random" />
	<vehicle id="v159" depart="104" route="r271" type="CarDefault" departLane="random" />
	<vehicle id="v24" depart="106.67" route="r273" type="CarDefault" departLane="random" />
	<vehicle id="v57" depart="106.67" route="r270" type="CarDefault" departLane="random" />
	<vehicle id="v115" depart="106.67" route="sr1069" type="CarDefault" departLane="random" />
	<vehicle id="v30" depart="108" route="r273" type="CarDefault" departLane="random" />
	<vehicle id="v31" depart="108" route="r273" type="CarDefault" departLane="random" />
	<vehicle id="v158" depart="108" route="r271" type="CarDefault" departLane="random" />
	<vehicle id="v86" depart="109.09" route="r272" type="CarDefault" departLane="random" />
	<vehicle id="v25" depart="110.0" route="r273" type="CarDefault" departLane="random" />
	<vehicle id="v58" depart="110.0" route="r270" type="CarDefault" departLane="random" />
	<vehicle id="v64" depart="110" route="r270" type="CarDefault" departLane="random" />
	<vehicle id="v116" depart="110.0" route="sr1069" type="CarDefault" departLane="random" />
	<vehicle id="v122" depart="113" route="sr1069" type="CarDefault" departLane="random" />
	<vehicle id="v26" depart="113.33" route="r273" type="CarDefault" departLane="random" />
	<vehicle id="v59" depart="113.33" route="r270" type="CarDefault" departLane="random" />
	<vehicle id="v117" depart="113.33" route="sr1069" type="CarDefault" departLane="random" />
	<vehicle id="v87" depart="114.55" route="r272" type="CarDefault" departLane="random" />
	<vehicle id="v65" depart="116" route="r270" type="CarDefault" departLane="random" />
	<vehicle id="v160" depart="116" route="r271" type="CarDefault" departLane="random" />
	<vehicle id="v27" depart="116.67" route="r273" type="CarDefault" departLane="random" />
	<vehicle id="v60" depart="116.67" route="r270" type="CarDefault" departLane="random" />
	<vehicle id="v118" depart="116.67" route="sr1069" type="CarDefault" departLane="random" />
	<vehicle id="v121" depart="117" route="sr1069" type="CarDefault" departLane="random" />
	<vehicle id="v123" depart="117" route="sr1069" type="CarDefault" departLane="random" />
	<vehicle id="v63" depart="119" route="r270" type="CarDefault" departLane="random" />
	<vehicle id="v28" depart="120.0" route="sr1066" type="CarDefault" departLane="random" />
	<vehicle id="v61" depart="120.0" route="sr1067" type="CarDefault" departLane="random" />
	<vehicle id="v88" depart="120.0" route="sr1068" type="CarDefault" departLane="random" />
	<vehicle id="v119" depart="120.0" route="sr1069" type="CarDefault" departLane="random" />
</routes>