<?xml version='1.0' encoding='utf-8'?>
<routes>
	<vType accel="3.0" decel="6.0" id="CarDefault" length="5.0" minGap="2.5" maxSpeed="50.0" sigma="0.5" />
	<route id="sr188" edges="13 83 118 27 24 26 23 20 125 143 144" fromJunction="69" toJunction="70" />
	<route id="r848" edges="121 168 166 167 130 131 56 73 105 47 124 164 104 40 70 144" fromJunction="29" toJunction="70" />
	<route id="sr191" edges="98 99 100 101 102 103 183 77 75 78 79" fromJunction="20" toJunction="73" />
	<route id="sr189" edges="121 168 166 167 130 131 56 73 105 1 30 50 157 154 125 143 144" fromJunction="29" toJunction="70" />
	<route id="r847" edges="121 168 166 167 130 131 56 73 105 1 164 104 40 70 144" fromJunction="29" toJunction="70" />
	<route id="sr190" edges="15 14 36 7 152 18" fromJunction="15" toJunction="93" />
	<route id="r846" edges="13 83 118 136 155 151 24 26 23 20 125 143 144" fromJunction="69" toJunction="70" />
	<vehicle id="v63" depart="0.0" route="sr190" type="CarDefault" departLane="random" />
	<vehicle id="v97" depart="0.0" route="sr191" type="CarDefault" departLane="random" />
	<vehicle id="v47" depart="2" route="r847" type="CarDefault" departLane="random" />
	<vehicle id="v98" depart="5.0" route="sr191" type="CarDefault" departLane="random" />
	<vehicle id="v6" depart="6" route="r846" type="CarDefault" departLane="random" />
	<vehicle id="v48" depart="6" route="r847" type="CarDefault" departLane="random" />
	<vehicle id="v0" depart="8" route="r846" type="CarDefault" departLane="random" />
	<vehicle id="v46" depart="9" route="r847" type="CarDefault" departLane="random" />
	<vehicle id="v64" depart="10.0" route="sr190" type="CarDefault" departLane="random" />
	<vehicle id="v99" depart="10.0" route="sr191" type="CarDefault" departLane="random" />
	<vehicle id="v5" depart="11" route="r846" type="CarDefault" departLane="random" />
	<vehicle id="v49" depart="15" route="r847" type="CarDefault" departLane="random" />
	<vehicle id="v100" depart="15.0" route="sr191" type="CarDefault" departLane="random" />
	<vehicle id="v2" depart="16" route="r846" type="CarDefault" departLane="random" />
	<vehicle id="v3" depart="16" route="r846" type="CarDefault" departLane="random" />
	<vehicle id="v45" depart="17" route="r847" type="CarDefault" departLane="random" />
	<vehicle id="v1" depart="19" route="r846" type="CarDefault" departLane="random" />
	<vehicle id="v4" depart="19" route="r846" type="CarDefault" departLane="random" />
	<vehicle id="v65" depart="20.0" route="sr190" type="CarDefault" departLane="random" />
	<vehicle id="v101" depart="20.0" route="sr191" type="CarDefault" departLane="random" />
	<vehicle id="v7" depart="21" route="r846" type="CarDefault" departLane="random" />
	<vehicle id="v8" depart="22" route="r846" type="CarDefault" departLane="random" />
	<vehicle id="v69" depart="22" route="sr190" type="CarDefault" departLane="random" />
	<vehicle id="v102" depart="25.0" route="sr191" type="CarDefault" departLane="random" />
	<vehicle id="v66" depart="30.0" route="sr190" type="CarDefault" departLane="random" />
	<vehicle id="v103" depart="30.0" route="sr191" type="CarDefault" departLane="random" />
	<vehicle id="v50" depart="35" route="r847" type="CarDefault" departLane="random" />
	<vehicle id="v68" depart="35" route="sr190" type="CarDefault" departLane="random" />
	<vehicle id="v104" depart="35.0" route="sr191" type="CarDefault" departLane="random" />
	<vehicle id="v9" depart="36" route="r846" type="CarDefault" departLane="random" />
	<vehicle id="v51" depart="39" route="r848" type="CarDefault" departLane="random" />
	<vehicle id="v67" depart="40.0" route="sr190" type="CarDefault" departLane="random" />
	<vehicle id="v70" depart="40.0" route="sr190" type="CarDefault" departLane="random" />
	<vehicle id="v105" depart="40.0" route="sr191" type="CarDefault" departLane="random" />
	<vehicle id="v14" depart="41" route="sr188" type="CarDefault" departLane="random" />
	<vehicle id="v53" depart="41" route="sr189" type="CarDefault" departLane="random" />
	<vehicle id="v10" depart="44" route="sr188" type="CarDefault" departLane="random" />
	<vehicle id="v106" depart="45.0" route="sr191" type="CarDefault" departLane="random" />
	<vehicle id="v71" depart="45.71" route="sr190" type="CarDefault" departLane="random" />
	<vehicle id="v107" depart="50.0" route="sr191" type="CarDefault" departLane="random" />
	<vehicle id="v72" depart="51.43" route="sr190" type="CarDefault" departLane="random" />
	<vehicle id="v108" depart="55.0" route="sr191" type="CarDefault" departLane="random" />
	<vehicle id="v11" depart="56" route="sr188" type="CarDefault" departLane="random" />
	<vehicle id="v12" depart="56" route="sr188" type="CarDefault" departLane="random" />
	<vehicle id="v13" depart="56" route="sr188" type="CarDefault" departLane="random" />
	<vehicle id="v52" depart="56" route="sr189" type="CarDefault" departLane="random" />
	<vehicle id="v73" depart="57.14" route="sr190" type="CarDefault" departLane="random" />
	<vehicle id="v17" depart="60" route="r846" type="CarDefault" departLane="random" />
	<vehicle id="v18" depart="60" route="r846" type="CarDefault" departLane="random" />
	<vehicle id="v54" depart="60" route="r847" type="CarDefault" departLane="random" />
	<vehicle id="v78" depart="60" route="sr190" type="CarDefault" departLane="random" />
	<vehicle id="v109" depart="60.0" route="sr191" type="CarDefault" departLane="random" />
	<vehicle id="v15" depart="61" route="r846" type="CarDefault" departLane="random" />
	<vehicle id="v20" depart="61" route="r846" type="CarDefault" departLane="random" />
	<vehicle id="v74" depart="62.86" route="sr190" type="CarDefault" departLane="random" />
	<vehicle id="v23" depart="63" route="r846" type="CarDefault" departLane="random" />
	<vehicle id="v16" depart="64" route="r846" type="CarDefault" departLane="random" />
	<vehicle id="v22" depart="65" route="r846" type="CarDefault" departLane="random" />
	<vehicle id="v26" depart="65" route="r846" type="CarDefault" departLane="random" />
	<vehicle id="v110" depart="65.0" route="sr191" type="CarDefault" departLane="random" />
	<vehicle id="v75" depart="68.57" route="sr190" type="CarDefault" departLane="random" />
	<vehicle id="v24" depart="70" route="r846" type="CarDefault" departLane="random" />
	<vehicle id="v80" depart="70" route="sr190" type="CarDefault" departLane="random" />
	<vehicle id="v111" depart="70.0" route="sr191" type="CarDefault" departLane="random" />
	<vehicle id="v21" depart="71" route="r846" type="CarDefault" departLane="random" />
	<vehicle id="v56" depart="71" route="r847" type="CarDefault" departLane="random" />
	<vehicle id="v76" depart="74.29" route="sr190" type="CarDefault" departLane="random" />
	<vehicle id="v55" depart="75" route="r847" type="CarDefault" departLane="random" />
	<vehicle id="v112" depart="75.0" route="sr191" type="CarDefault" departLane="random" />
	<vehicle id="v25" depart="76" route="r846" type="CarDefault" departLane="random" />
	<vehicle id="v19" depart="78" route="r846" type="CarDefault" departLane="random" />
	<vehicle id="v79" depart="79" route="sr190" type="CarDefault" departLane="random" />
	<vehicle id="v34" depart="80" route="r846" type="CarDefault" departLane="random" />
	<vehicle id="v77" depart="80.0" route="sr190" type="CarDefault" departLane="random" />
	<vehicle id="v81" depart="80.0" route="sr190" type="CarDefault" departLane="random" />
	<vehicle id="v113" depart="80.0" route="sr191" type="CarDefault" departLane="random" />
	<vehicle id="v29" depart="81" route="r846" type="CarDefault" departLane="random" />
	<vehicle id="v82" depart="83.33" route="sr190" type="CarDefault" departLane="random" />
	<vehicle id="v27" depart="84" route="r846" type="CarDefault" departLane="random" />
	<vehicle id="v57" depart="84" route="r847" type="CarDefault" departLane="random" />
	<vehicle id="v58" depart="84" route="r847" type="CarDefault" departLane="random" />
	<vehicle id="v30" depart="85" route="r846" type="CarDefault" departLane="random" />
	<vehicle id="v36" depart="85" route="r846" type="CarDefault" departLane="random" />
	<vehicle id="v114" depart="85.0" route="sr191" type="CarDefault" departLane="random" />
	<vehicle id="v83" depart="86.67" route="sr190" type="CarDefault" departLane="random" />
	<vehicle id="v35" depart="88" route="r846" type="CarDefault" departLane="random" />
	<vehicle id="v31" depart="90" route="r846" type="CarDefault" departLane="random" />
	<vehicle id="v84" depart="90.0" route="sr190" type="CarDefault" departLane="random" />
	<vehicle id="v115" depart="90.0" route="sr191" type="CarDefault" departLane="random" />
	<vehicle id="v85" depart="93.33" route="sr190" type="CarDefault" departLane="random" />
	<vehicle id="v32" depart="95" route="r846" type="CarDefault" departLane="random" />
	<vehicle id="v33" depart="95" route="r846" type="CarDefault" departLane="random" />
	<vehicle id="v116" depart="95.0" route="sr191" type="CarDefault" departLane="random" />
	<vehicle id="v86" depart="96.67" route="sr190" type="CarDefault" departLane="random" />
	<vehicle id="v28" depart="99" route="r846" type="CarDefault" departLane="random" />
	<vehicle id="v87" depart="100.0" route="sr190" type="CarDefault" departLane="random" />
	<vehicle id="v117" depart="100.0" route="sr191" type="CarDefault" departLane="random" />
	<vehicle id="v38" depart="102" route="sr188" type="CarDefault" departLane="random" />
	<vehicle id="v42" depart="102" route="sr188" type="CarDefault" departLane="random" />
	<vehicle id="v61" depart="102" route="sr189" type="CarDefault" departLane="random" />
	<vehicle id="v40" depart="103" route="sr188" type="CarDefault" departLane="random" />
	<vehicle id="v95" depart="103" route="sr190" type="CarDefault" departLane="random" />
	<vehicle id="v88" depart="103.33" route="sr190" type="CarDefault" departLane="random" />
	<vehicle id="v96" depart="105" route="sr190" type="CarDefault" departLane="random" />
	<vehicle id="v118" depart="105.0" route="sr191" type="CarDefault" departLane="random" />
	<vehicle id="v89" depart="106.67" route="sr190" type="CarDefault" departLane="random" />
	<vehicle id="v94" depart="107" route="sr190" type="CarDefault" departLane="random" />
	<vehicle id="v59" depart="108" route="sr189" type="CarDefault" departLane="random" />
	<vehicle id="v60" depart="108" route="sr189" type="CarDefault" departLane="random" />
	<vehicle id="v90" depart="110.0" route="sr190" type="CarDefault" departLane="random" />
	<vehicle id="v119" depart="110.0" route="sr191" type="CarDefault" departLane="random" />
	<vehicle id="v91" depart="113.33" route="sr190" type="CarDefault" departLane="random" />
	<vehicle id="v37" depart="115" route="sr188" type="CarDefault" departLane="random" />
	<vehicle id="v120" depart="115.0" route="sr191" type="CarDefault" departLane="random" />
	<vehicle id="v92" depart="116.67" route="sr190" type="CarDefault" departLane="random" />
	<vehicle id="v41" depart="118" route="sr188" type="CarDefault" departLane="random" />
	<vehicle id="v43" depart="118" route="sr188" type="CarDefault" departLane="random" />
	<vehicle id="v62" depart="118" route="sr189" type="CarDefault" departLane="random" />
	<vehicle id="v39" depart="119" route="sr188" type="CarDefault" departLane="random" />
	<vehicle id="v44" depart="119" route="sr188" type="CarDefault" departLane="random" />
	<vehicle id="v93" depart="120.0" route="sr190" type="CarDefault" departLane="random" />
	<vehicle id="v121" depart="120.0" route="sr191" type="CarDefault" departLane="random" />
</routes>