<?xml version='1.0' encoding='utf-8'?>
<routes>
	<vType accel="3.0" decel="6.0" id="CarDefault" length="5.0" minGap="2.5" maxSpeed="50.0" sigma="0.5" />
	<route id="r125" edges="15 139 97 119 117 120 25 11 2 141 99 100 101 102 103 183 77 75 78 79" fromJunction="15" toJunction="73" />
	<route id="r124" edges="38 37 29 41 43 170 127 57 54 128 145 167 182 75 78 79" fromJunction="70" toJunction="73" />
	<route id="r123" edges="22 12 112 54 128 145 167 182 96" fromJunction="78" toJunction="8" />
	<route id="r122" edges="15 139 97 119 117 120 25 11 52 51 21 32 31 182 75 78 79" fromJunction="15" toJunction="73" />
	<route id="r121" edges="13 83 118 27 24 26 23 20 125 140 90 91" fromJunction="69" toJunction="15" />
	<route id="r120" edges="13 83 118 27 24 26 23 20 114 115 90 91" fromJunction="69" toJunction="15" />
	<route id="r119" edges="38 37 29 106 116 119 117 120 25 11 2 141 99 100 101 102 103 183 77 75 78 79" fromJunction="70" toJunction="73" />
	<route id="r118" edges="38 6 152 18 112 54 128 145 167 182 75 78 79" fromJunction="70" toJunction="73" />
	<route id="r117" edges="55 75 78 79" fromJunction="83" toJunction="73" />
	<route id="r374" edges="55 75 78 79" fromJunction="83" toJunction="73" />
	<route id="r375" edges="15 139 97 119 117 120 136 137 138 5 9 21 32 31 182 75 78 79" fromJunction="15" toJunction="73" />
	<route id="r376" edges="38 37 29 41 43 170 127 57 19 8 0 32 31 182 75 78 79" fromJunction="70" toJunction="73" />
	<route id="r377" edges="13 83 118 27 24 26 23 20 114 115 90 91" fromJunction="69" toJunction="15" />
	<route id="r378" edges="22 12 112 19 8 0 32 31 182 96" fromJunction="78" toJunction="8" />
	<vehicle id="v0" depart="0.0" route="r374" type="CarDefault" departLane="random" />
	<vehicle id="v98" depart="0.0" route="r376" type="CarDefault" departLane="random" />
	<vehicle id="v161" depart="0.0" route="r377" type="CarDefault" departLane="random" />
	<vehicle id="v247" depart="0.0" route="r378" type="CarDefault" departLane="random" />
	<vehicle id="v1" depart="4.69" route="r374" type="CarDefault" departLane="random" />
	<vehicle id="v99" depart="4.84" route="r376" type="CarDefault" departLane="random" />
	<vehicle id="v65" depart="7" route="r375" type="CarDefault" departLane="random" />
	<vehicle id="v162" depart="7.69" route="r377" type="CarDefault" departLane="random" />
	<vehicle id="v248" depart="7.69" route="r378" type="CarDefault" departLane="random" />
	<vehicle id="v2" depart="9.38" route="r374" type="CarDefault" departLane="random" />
	<vehicle id="v100" depart="9.68" route="r376" type="CarDefault" departLane="random" />
	<vehicle id="v3" depart="14.06" route="r374" type="CarDefault" departLane="random" />
	<vehicle id="v101" depart="14.52" route="r376" type="CarDefault" departLane="random" />
	<vehicle id="v163" depart="15.38" route="r377" type="CarDefault" departLane="random" />
	<vehicle id="v249" depart="15.38" route="r378" type="CarDefault" departLane="random" />
	<vehicle id="v4" depart="18.75" route="r374" type="CarDefault" departLane="random" />
	<vehicle id="v102" depart="19.35" route="r376" type="CarDefault" departLane="random" />
	<vehicle id="v164" depart="23.08" route="r120" type="CarDefault" departLane="random" />
	<vehicle id="v250" depart="23.08" route="r123" type="CarDefault" departLane="random" />
	<vehicle id="v5" depart="23.44" route="r117" type="CarDefault" departLane="random" />
	<vehicle id="v103" depart="24.19" route="r118" type="CarDefault" departLane="random" />
	<vehicle id="v66" depart="26" route="r122" type="CarDefault" departLane="random" />
	<vehicle id="v6" depart="28.12" route="r117" type="CarDefault" departLane="random" />
	<vehicle id="v104" depart="29.03" route="r118" type="CarDefault" departLane="random" />
	<vehicle id="v165" depart="30.77" route="r120" type="CarDefault" departLane="random" />
	<vehicle id="v251" depart="30.77" route="r123" type="CarDefault" departLane="random" />
	<vehicle id="v7" depart="32.81" route="r117" type="CarDefault" departLane="random" />
	<vehicle id="v105" depart="33.87" route="r119" type="CarDefault" departLane="random" />
	<vehicle id="v8" depart="37.5" route="r117" type="CarDefault" departLane="random" />
	<vehicle id="v166" depart="38.46" route="r121" type="CarDefault" departLane="random" />
	<vehicle id="v252" depart="38.46" route="r123" type="CarDefault" departLane="random" />
	<vehicle id="v106" depart="38.71" route="r124" type="CarDefault" departLane="random" />
	<vehicle id="v69" depart="40" route="r375" type="CarDefault" departLane="random" />
	<vehicle id="v9" depart="42.19" route="r374" type="CarDefault" departLane="random" />
	<vehicle id="v107" depart="43.55" route="r376" type="CarDefault" departLane="random" />
	<vehicle id="v167" depart="46.15" route="r377" type="CarDefault" departLane="random" />
	<vehicle id="v253" depart="46.15" route="r378" type="CarDefault" departLane="random" />
	<vehicle id="v10" depart="46.88" route="r374" type="CarDefault" departLane="random" />
	<vehicle id="v68" depart="47" route="r375" type="CarDefault" departLane="random" />
	<vehicle id="v108" depart="48.39" route="r376" type="CarDefault" departLane="random" />
	<vehicle id="v11" depart="51.56" route="r374" type="CarDefault" departLane="random" />
	<vehicle id="v109" depart="53.23" route="r376" type="CarDefault" departLane="random" />
	<vehicle id="v168" depart="53.85" route="r377" type="CarDefault" departLane="random" />
	<vehicle id="v254" depart="53.85" route="r378" type="CarDefault" departLane="random" />
	<vehicle id="v12" depart="56.25" route="r374" type="CarDefault" departLane="random" />
	<vehicle id="v67" depart="57" route="r375" type="CarDefault" departLane="random" />
	<vehicle id="v110" depart="58.06" route="r376" type="CarDefault" departLane="random" />
	<vehicle id="v13" depart="60.94" route="r374" type="CarDefault" departLane="random" />
	<vehicle id="v169" depart="61.54" route="r377" type="CarDefault" departLane="random" />
	<vehicle id="v255" depart="61.54" route="r378" type="CarDefault" departLane="random" />
	<vehicle id="v111" depart="62.9" route="r376" type="CarDefault" departLane="random" />
	<vehicle id="v261" depart="63" route="r378" type="CarDefault" departLane="random" />
	<vehicle id="v14" depart="65.62" route="r374" type="CarDefault" departLane="random" />
	<vehicle id="v112" depart="67.74" route="r376" type="CarDefault" departLane="random" />
	<vehicle id="v177" depart="69" route="r377" type="CarDefault" departLane="random" />
	<vehicle id="v170" depart="69.23" route="r377" type="CarDefault" departLane="random" />
	<vehicle id="v256" depart="69.23" route="r378" type="CarDefault" departLane="random" />
	<vehicle id="v70" depart="70" route="r375" type="CarDefault" departLane="random" />
	<vehicle id="v262" depart="70" route="r378" type="CarDefault" departLane="random" />
	<vehicle id="v15" depart="70.31" route="r374" type="CarDefault" departLane="random" />
	<vehicle id="v113" depart="72.58" route="r376" type="CarDefault" departLane="random" />
	<vehicle id="v16" depart="75.0" route="r374" type="CarDefault" departLane="random" />
	<vehicle id="v171" depart="76.92" route="r377" type="CarDefault" departLane="random" />
	<vehicle id="v257" depart="76.92" route="r378" type="CarDefault" departLane="random" />
	<vehicle id="v71" depart="77" route="r375" type="CarDefault" departLane="random" />
	<vehicle id="v114" depart="77.42" route="r376" type="CarDefault" departLane="random" />
	<vehicle id="v17" depart="79.69" route="r374" type="CarDefault" departLane="random" />
	<vehicle id="v115" depart="82.26" route="r118" type="CarDefault" departLane="random" />
	<vehicle id="v18" depart="84.38" route="r117" type="CarDefault" departLane="random" />
	<vehicle id="v172" depart="84.62" route="r120" type="CarDefault" departLane="random" />
	<vehicle id="v258" depart="84.62" route="r123" type="CarDefault" departLane="random" />
	<vehicle id="v175" depart="87" route="r120" type="CarDefault" departLane="random" />
	<vehicle id="v116" depart="87.1" route="r118" type="CarDefault" departLane="random" />
	<vehicle id="v72" depart="89" route="r125" type="CarDefault" departLane="random" />
	<vehicle id="v176" depart="89" route="r121" type="CarDefault" departLane="random" />
	<vehicle id="v19" depart="89.06" route="r117" type="CarDefault" departLane="random" />
	<vehicle id="v117" depart="91.94" route="r118" type="CarDefault" departLane="random" />
	<vehicle id="v173" depart="92.31" route="r120" type="CarDefault" departLane="random" />
	<vehicle id="v259" depart="92.31" route="r123" type="CarDefault" departLane="random" />
	<vehicle id="v20" depart="93.75" route="r117" type="CarDefault" departLane="random" />
	<vehicle id="v118" depart="96.77" route="r118" type="CarDefault" departLane="random" />
	<vehicle id="v21" depart="98.44" route="r117" type="CarDefault" departLane="random" />
	<vehicle id="v174" depart="100.0" route="r377" type="CarDefault" departLane="random" />
	<vehicle id="v178" depart="100.0" route="r377" type="CarDefault" departLane="random" />
	<vehicle id="v260" depart="100.0" route="r378" type="CarDefault" departLane="random" />
	<vehicle id="v263" depart="100.0" route="r378" type="CarDefault" departLane="random" />
	<vehicle id="v119" depart="101.61" route="r376" type="CarDefault" departLane="random" />
	<vehicle id="v73" depart="102" route="r375" type="CarDefault" departLane="random" />
	<vehicle id="v22" depart="103.12" route="r374" type="CarDefault" departLane="random" />
	<vehicle id="v179" depart="105.26" route="r377" type="CarDefault" departLane="random" />
	<vehicle id="v264" depart="105.26" route="r378" type="CarDefault" departLane="random" />
	<vehicle id="v74" depart="106" route="r375" type="CarDefault" departLane="random" />
	<vehicle id="v120" depart="106.45" route="r376" type="CarDefault" departLane="random" />
	<vehicle id="v23" depart="107.81" route="r374" type="CarDefault" departLane="random" />
	<vehicle id="v180" depart="110.53" route="r377" type="CarDefault" departLane="random" />
	<vehicle id="v265" depart="110.53" route="r378" type="CarDefault" departLane="random" />
	<vehicle id="v121" depart="111.29" route="r376" type="CarDefault" departLane="random" />
	<vehicle id="v24" depart="112.5" route="r374" type="CarDefault" departLane="random" />
	<vehicle id="v75" depart="115" route="r375" type="CarDefault" departLane="random" />
	<vehicle id="v181" depart="115.79" route="r377" type="CarDefault" departLane="random" />
	<vehicle id="v266" depart="115.79" route="r378" type="CarDefault" departLane="random" />
	<vehicle id="v122" depart="116.13" route="r376" type="CarDefault" departLane="random" />
	<vehicle id="v25" depart="117.19" route="r374" type="CarDefault" departLane="random" />
	<vehicle id="v123" depart="120.97" route="r376" type="CarDefault" departLane="random" />
	<vehicle id="v182" depart="121.05" route="r377" type="CarDefault" departLane="random" />
	<vehicle id="v267" depart="121.05" route="r378" type="CarDefault" departLane="random" />
	<vehicle id="v26" depart="121.88" route="r374" type="CarDefault" departLane="random" />
	<vehicle id="v124" depart="125.81" route="r376" type="CarDefault" departLane="random" />
	<vehicle id="v183" depart="126.32" route="r377" type="CarDefault" departLane="random" />
	<vehicle id="v268" depart="126.32" route="r378" type="CarDefault" departLane="random" />
	<vehicle id="v27" depart="126.56" route="r374" type="CarDefault" departLane="random" />
	<vehicle id="v125" depart="130.65" route="r376" type="CarDefault" departLane="random" />
	<vehicle id="v28" depart="131.25" route="r374" type="CarDefault" departLane="random" />
	<vehicle id="v184" depart="131.58" route="r377" type="CarDefault" departLane="random" />
	<vehicle id="v269" depart="131.58" route="r378" type="CarDefault" departLane="random" />
	<vehicle id="v76" depart="135" route="r375" type="CarDefault" departLane="random" />
	<vehicle id="v126" depart="135.48" route="r376" type="CarDefault" departLane="random" />
	<vehicle id="v29" depart="135.94" route="r374" type="CarDefault" departLane="random" />
	<vehicle id="v78" depart="136" route="r375" type="CarDefault" departLane="random" />
	<vehicle id="v185" depart="136.84" route="r377" type="CarDefault" departLane="random" />
	<vehicle id="v270" depart="136.84" route="r378" type="CarDefault" departLane="random" />
	<vehicle id="v77" depart="139" route="r375" type="CarDefault" departLane="random" />
	<vehicle id="v80" depart="140" route="r375" type="CarDefault" departLane="random" />
	<vehicle id="v127" depart="140.32" route="r376" type="CarDefault" departLane="random" />
	<vehicle id="v30" depart="140.62" route="r374" type="CarDefault" departLane="random" />
	<vehicle id="v79" depart="141" route="r375" type="CarDefault" departLane="random" />
	<vehicle id="v186" depart="142.11" route="r377" type="CarDefault" departLane="random" />
	<vehicle id="v271" depart="142.11" route="r378" type="CarDefault" departLane="random" />
	<vehicle id="v128" depart="145.16" route="r376" type="CarDefault" departLane="random" />
	<vehicle id="v31" depart="145.31" route="r374" type="CarDefault" departLane="random" />
	<vehicle id="v187" depart="147.37" route="r377" type="CarDefault" departLane="random" />
	<vehicle id="v272" depart="147.37" route="r378" type="CarDefault" departLane="random" />
	<vehicle id="v32" depart="150.0" route="r374" type="CarDefault" departLane="random" />
	<vehicle id="v129" depart="150.0" route="r376" type="CarDefault" departLane="random" />
	<vehicle id="v286" depart="152" route="r378" type="CarDefault" departLane="random" />
	<vehicle id="v188" depart="152.63" route="r377" type="CarDefault" departLane="random" />
	<vehicle id="v273" depart="152.63" route="r378" type="CarDefault" departLane="random" />
	<vehicle id="v33" depart="154.69" route="r374" type="CarDefault" departLane="random" />
	<vehicle id="v130" depart="154.84" route="r376" type="CarDefault" departLane="random" />
	<vehicle id="v81" depart="155" route="r375" type="CarDefault" departLane="random" />
	<vehicle id="v285" depart="156" route="r378" type="CarDefault" departLane="random" />
	<vehicle id="v284" depart="157" route="r378" type="CarDefault" departLane="random" />
	<vehicle id="v189" depart="157.89" route="r377" type="CarDefault" departLane="random" />
	<vehicle id="v274" depart="157.89" route="r378" type="CarDefault" departLane="random" />
	<vehicle id="v34" depart="159.38" route="r374" type="CarDefault" departLane="random" />
	<vehicle id="v131" depart="159.68" route="r376" type="CarDefault" departLane="random" />
	<vehicle id="v190" depart="163.16" route="r377" type="CarDefault" departLane="random" />
	<vehicle id="v275" depart="163.16" route="r378" type="CarDefault" departLane="random" />
	<vehicle id="v83" depart="164" route="r375" type="CarDefault" departLane="random" />
	<vehicle id="v35" depart="164.06" route="r374" type="CarDefault" departLane="random" />
	<vehicle id="v132" depart="164.52" route="r376" type="CarDefault" departLane="random" />
	<vehicle id="v287" depart="166" route="r378" type="CarDefault" departLane="random" />
	<vehicle id="v204" depart="167" route="r377" type="CarDefault" departLane="random" />
	<vehicle id="v191" depart="168.42" route="r377" type="CarDefault" departLane="random" />
	<vehicle id="v276" depart="168.42" route="r378" type="CarDefault" departLane="random" />
	<vehicle id="v36" depart="168.75" route="r374" type="CarDefault" departLane="random" />
	<vehicle id="v283" depart="169" route="r378" type="CarDefault" departLane="random" />
	<vehicle id="v133" depart="169.35" route="r376" type="CarDefault" departLane="random" />
	<vehicle id="v82" depart="171" route="r375" type="CarDefault" departLane="random" />
	<vehicle id="v37" depart="173.44" route="r374" type="CarDefault" departLane="random" />
	<vehicle id="v192" depart="173.68" route="r377" type="CarDefault" departLane="random" />
	<vehicle id="v277" depart="173.68" route="r378" type="CarDefault" departLane="random" />
	<vehicle id="v200" depart="174" route="r377" type="CarDefault" departLane="random" />
	<vehicle id="v202" depart="174" route="r377" type="CarDefault" departLane="random" />
	<vehicle id="v134" depart="174.19" route="r376" type="CarDefault" departLane="random" />
	<vehicle id="v203" depart="178" route="r377" type="CarDefault" departLane="random" />
	<vehicle id="v38" depart="178.12" route="r374" type="CarDefault" departLane="random" />
	<vehicle id="v193" depart="178.95" route="r377" type="CarDefault" departLane="random" />
	<vehicle id="v278" depart="178.95" route="r378" type="CarDefault" departLane="random" />
	<vehicle id="v135" depart="179.03" route="r376" type="CarDefault" departLane="random" />
	<vehicle id="v288" depart="182" route="r378" type="CarDefault" departLane="random" />
	<vehicle id="v39" depart="182.81" route="r374" type="CarDefault" departLane="random" />
	<vehicle id="v136" depart="183.87" route="r376" type="CarDefault" departLane="random" />
	<vehicle id="v84" depart="184" route="r375" type="CarDefault" departLane="random" />
	<vehicle id="v198" depart="184" route="r377" type="CarDefault" departLane="random" />
	<vehicle id="v201" depart="184" route="r377" type="CarDefault" departLane="random" />
	<vehicle id="v194" depart="184.21" route="r377" type="CarDefault" departLane="random" />
	<vehicle id="v279" depart="184.21" route="r378" type="CarDefault" departLane="random" />
	<vehicle id="v40" depart="187.5" route="r374" type="CarDefault" departLane="random" />
	<vehicle id="v85" depart="188" route="r375" type="CarDefault" departLane="random" />
	<vehicle id="v86" depart="188" route="r375" type="CarDefault" departLane="random" />
	<vehicle id="v137" depart="188.71" route="r376" type="CarDefault" departLane="random" />
	<vehicle id="v195" depart="189.47" route="r377" type="CarDefault" departLane="random" />
	<vehicle id="v280" depart="189.47" route="r378" type="CarDefault" departLane="random" />
	<vehicle id="v41" depart="192.19" route="r374" type="CarDefault" departLane="random" />
	<vehicle id="v138" depart="193.55" route="r376" type="CarDefault" departLane="random" />
	<vehicle id="v196" depart="194.74" route="r377" type="CarDefault" departLane="random" />
	<vehicle id="v281" depart="194.74" route="r378" type="CarDefault" departLane="random" />
	<vehicle id="v42" depart="196.88" route="r374" type="CarDefault" departLane="random" />
	<vehicle id="v199" depart="197" route="r377" type="CarDefault" departLane="random" />
	<vehicle id="v289" depart="197" route="r378" type="CarDefault" departLane="random" />
	<vehicle id="v139" depart="198.39" route="r376" type="CarDefault" departLane="random" />
	<vehicle id="v197" depart="200.0" route="r377" type="CarDefault" departLane="random" />
	<vehicle id="v205" depart="200.0" route="r377" type="CarDefault" departLane="random" />
	<vehicle id="v282" depart="200.0" route="r378" type="CarDefault" departLane="random" />
	<vehicle id="v290" depart="200.0" route="r378" type="CarDefault" departLane="random" />
	<vehicle id="v43" depart="201.56" route="r374" type="CarDefault" departLane="random" />
	<vehicle id="v87" depart="202" route="r375" type="CarDefault" departLane="random" />
	<vehicle id="v206" depart="203.12" route="r377" type="CarDefault" departLane="random" />
	<vehicle id="v291" depart="203.12" route="r378" type="CarDefault" departLane="random" />
	<vehicle id="v140" depart="203.23" route="r376" type="CarDefault" departLane="random" />
	<vehicle id="v44" depart="206.25" route="r374" type="CarDefault" departLane="random" />
	<vehicle id="v207" depart="206.25" route="r377" type="CarDefault" departLane="random" />
	<vehicle id="v292" depart="206.25" route="r378" type="CarDefault" departLane="random" />
	<vehicle id="v141" depart="208.06" route="r376" type="CarDefault" departLane="random" />
	<vehicle id="v208" depart="209.38" route="r377" type="CarDefault" departLane="random" />
	<vehicle id="v293" depart="209.38" route="r378" type="CarDefault" departLane="random" />
	<vehicle id="v45" depart="210.94" route="r374" type="CarDefault" departLane="random" />
	<vehicle id="v209" depart="212.5" route="r377" type="CarDefault" departLane="random" />
	<vehicle id="v294" depart="212.5" route="r378" type="CarDefault" departLane="random" />
	<vehicle id="v142" depart="212.9" route="r376" type="CarDefault" departLane="random" />
	<vehicle id="v89" depart="215" route="r375" type="CarDefault" departLane="random" />
	<vehicle id="v46" depart="215.62" route="r374" type="CarDefault" departLane="random" />
	<vehicle id="v210" depart="215.62" route="r377" type="CarDefault" departLane="random" />
	<vehicle id="v295" depart="215.62" route="r378" type="CarDefault" departLane="random" />
	<vehicle id="v143" depart="217.74" route="r376" type="CarDefault" departLane="random" />
	<vehicle id="v88" depart="218" route="r375" type="CarDefault" departLane="random" />
	<vehicle id="v211" depart="218.75" route="r377" type="CarDefault" departLane="random" />
	<vehicle id="v296" depart="218.75" route="r378" type="CarDefault" departLane="random" />
	<vehicle id="v47" depart="220.31" route="r374" type="CarDefault" departLane="random" />
	<vehicle id="v212" depart="221.88" route="r377" type="CarDefault" departLane="random" />
	<vehicle id="v297" depart="221.88" route="r378" type="CarDefault" departLane="random" />
	<vehicle id="v91" depart="222" route="r375" type="CarDefault" departLane="random" />
	<vehicle id="v144" depart="222.58" route="r376" type="CarDefault" departLane="random" />
	<vehicle id="v48" depart="225.0" route="r374" type="CarDefault" departLane="random" />
	<vehicle id="v213" depart="225.0" route="r377" type="CarDefault" departLane="random" />
	<vehicle id="v298" depart="225.0" route="r378" type="CarDefault" departLane="random" />
	<vehicle id="v145" depart="227.42" route="r376" type="CarDefault" departLane="random" />
	<vehicle id="v214" depart="228.12" route="r377" type="CarDefault" departLane="random" />
	<vehicle id="v299" depart="228.12" route="r378" type="CarDefault" departLane="random" />
	<vehicle id="v49" depart="229.69" route="r374" type="CarDefault" departLane="random" />
	<vehicle id="v215" depart="231.25" route="r377" type="CarDefault" departLane="random" />
	<vehicle id="v300" depart="231.25" route="r378" type="CarDefault" departLane="random" />
	<vehicle id="v146" depart="232.26" route="r376" type="CarDefault" departLane="random" />
	<vehicle id="v50" depart="234.38" route="r374" type="CarDefault" departLane="random" />
	<vehicle id="v216" depart="234.38" route="r377" type="CarDefault" departLane="random" />
	<vehicle id="v301" depart="234.38" route="r378" type="CarDefault" departLane="random" />
	<vehicle id="v90" depart="235" route="r375" type="CarDefault" departLane="random" />
	<vehicle id="v147" depart="237.1" route="r376" type="CarDefault" departLane="random" />
	<vehicle id="v217" depart="237.5" route="r377" type="CarDefault" departLane="random" />
	<vehicle id="v302" depart="237.5" route="r378" type="CarDefault" departLane="random" />
	<vehicle id="v92" depart="239" route="r375" type="CarDefault" departLane="random" />
	<vehicle id="v51" depart="239.06" route="r374" type="CarDefault" departLane="random" />
	<vehicle id="v93" depart="240" route="r375" type="CarDefault" departLane="random" />
	<vehicle id="v218" depart="240.62" route="r377" type="CarDefault" departLane="random" />
	<vehicle id="v303" depart="240.62" route="r378" type="CarDefault" departLane="random" />
	<vehicle id="v148" depart="241.94" route="r376" type="CarDefault" departLane="random" />
	<vehicle id="v52" depart="243.75" route="r374" type="CarDefault" departLane="random" />
	<vehicle id="v219" depart="243.75" route="r377" type="CarDefault" departLane="random" />
	<vehicle id="v304" depart="243.75" route="r378" type="CarDefault" departLane="random" />
	<vehicle id="v149" depart="246.77" route="r376" type="CarDefault" departLane="random" />
	<vehicle id="v220" depart="246.88" route="r377" type="CarDefault" departLane="random" />
	<vehicle id="v305" depart="246.88" route="r378" type="CarDefault" departLane="random" />
	<vehicle id="v53" depart="248.44" route="r374" type="CarDefault" departLane="random" />
	<vehicle id="v95" depart="250" route="r375" type="CarDefault" departLane="random" />
	<vehicle id="v221" depart="250.0" route="r377" type="CarDefault" departLane="random" />
	<vehicle id="v306" depart="250.0" route="r378" type="CarDefault" departLane="random" />
	<vehicle id="v240" depart="251" route="r377" type="CarDefault" departLane="random" />
	<vehicle id="v150" depart="251.61" route="r376" type="CarDefault" departLane="random" />
	<vehicle id="v246" depart="253" route="r377" type="CarDefault" departLane="random" />
	<vehicle id="v54" depart="253.12" route="r374" type="CarDefault" departLane="random" />
	<vehicle id="v222" depart="253.12" route="r377" type="CarDefault" departLane="random" />
	<vehicle id="v307" depart="253.12" route="r378" type="CarDefault" departLane="random" />
	<vehicle id="v223" depart="256.25" route="r377" type="CarDefault" departLane="random" />
	<vehicle id="v308" depart="256.25" route="r378" type="CarDefault" departLane="random" />
	<vehicle id="v151" depart="256.45" route="r376" type="CarDefault" departLane="random" />
	<vehicle id="v330" depart="257" route="r378" type="CarDefault" departLane="random" />
	<vehicle id="v55" depart="257.81" route="r374" type="CarDefault" departLane="random" />
	<vehicle id="v94" depart="259" route="r375" type="CarDefault" departLane="random" />
	<vehicle id="v224" depart="259.38" route="r377" type="CarDefault" departLane="random" />
	<vehicle id="v309" depart="259.38" route="r378" type="CarDefault" departLane="random" />
	<vehicle id="v152" depart="261.29" route="r376" type="CarDefault" departLane="random" />
	<vehicle id="v56" depart="262.5" route="r374" type="CarDefault" departLane="random" />
	<vehicle id="v225" depart="262.5" route="r377" type="CarDefault" departLane="random" />
	<vehicle id="v310" depart="262.5" route="r378" type="CarDefault" departLane="random" />
	<vehicle id="v242" depart="265" route="r377" type="CarDefault" departLane="random" />
	<vehicle id="v226" depart="265.62" route="r377" type="CarDefault" departLane="random" />
	<vehicle id="v311" depart="265.62" route="r378" type="CarDefault" departLane="random" />
	<vehicle id="v153" depart="266.13" route="r376" type="CarDefault" departLane="random" />
	<vehicle id="v239" depart="267" route="r377" type="CarDefault" departLane="random" />
	<vehicle id="v57" depart="267.19" route="r374" type="CarDefault" departLane="random" />
	<vehicle id="v227" depart="268.75" route="r377" type="CarDefault" departLane="random" />
	<vehicle id="v312" depart="268.75" route="r378" type="CarDefault" departLane="random" />
	<vehicle id="v154" depart="270.97" route="r376" type="CarDefault" departLane="random" />
	<vehicle id="v323" depart="271" route="r378" type="CarDefault" departLane="random" />
	<vehicle id="v324" depart="271" route="r378" type="CarDefault" departLane="random" />
	<vehicle id="v58" depart="271.88" route="r374" type="CarDefault" departLane="random" />
	<vehicle id="v228" depart="271.88" route="r377" type="CarDefault" departLane="random" />
	<vehicle id="v313" depart="271.88" route="r378" type="CarDefault" departLane="random" />
	<vehicle id="v229" depart="275.0" route="r377" type="CarDefault" departLane="random" />
	<vehicle id="v314" depart="275.0" route="r378" type="CarDefault" departLane="random" />
	<vehicle id="v155" depart="275.81" route="r376" type="CarDefault" departLane="random" />
	<vehicle id="v96" depart="276" route="r375" type="CarDefault" departLane="random" />
	<vehicle id="v331" depart="276" route="r378" type="CarDefault" departLane="random" />
	<vehicle id="v59" depart="276.56" route="r374" type="CarDefault" departLane="random" />
	<vehicle id="v230" depart="278.12" route="r377" type="CarDefault" departLane="random" />
	<vehicle id="v315" depart="278.12" route="r378" type="CarDefault" departLane="random" />
	<vehicle id="v326" depart="279" route="r378" type="CarDefault" departLane="random" />
	<vehicle id="v156" depart="280.65" route="r376" type="CarDefault" departLane="random" />
	<vehicle id="v60" depart="281.25" route="r374" type="CarDefault" departLane="random" />
	<vehicle id="v231" depart="281.25" route="r377" type="CarDefault" departLane="random" />
	<vehicle id="v316" depart="281.25" route="r378" type="CarDefault" departLane="random" />
	<vehicle id="v245" depart="282" route="r377" type="CarDefault" departLane="random" />
	<vehicle id="v241" depart="284" route="r377" type="CarDefault" departLane="random" />
	<vehicle id="v232" depart="284.38" route="r377" type="CarDefault" departLane="random" />
	<vehicle id="v317" depart="284.38" route="r378" type="CarDefault" departLane="random" />
	<vehicle id="v244" depart="285" route="r377" type="CarDefault" departLane="random" />
	<vehicle id="v157" depart="285.48" route="r376" type="CarDefault" departLane="random" />
	<vehicle id="v61" depart="285.94" route="r374" type="CarDefault" departLane="random" />
	<vehicle id="v97" depart="287" route="r375" type="CarDefault" departLane="random" />
	<vehicle id="v327" depart="287" route="r378" type="CarDefault" departLane="random" />
	<vehicle id="v328" depart="287" route="r378" type="CarDefault" departLane="random" />
	<vehicle id="v233" depart="287.5" route="r377" type="CarDefault" departLane="random" />
	<vehicle id="v318" depart="287.5" route="r378" type="CarDefault" departLane="random" />
	<vehicle id="v243" depart="290" route="r377" type="CarDefault" departLane="random" />
	<vehicle id="v158" depart="290.32" route="r376" type="CarDefault" departLane="random" />
	<vehicle id="v62" depart="290.62" route="r374" type="CarDefault" departLane="random" />
	<vehicle id="v234" depart="290.62" route="r377" type="CarDefault" departLane="random" />
	<vehicle id="v319" depart="290.62" route="r378" type="CarDefault" departLane="random" />