<?xml version='1.0' encoding='utf-8'?>
<routes>
	<vType accel="3.0" decel="6.0" id="CarDefault" length="5.0" minGap="2.5" maxSpeed="50.0" sigma="0.5" />
	<route id="r58" edges="132 133 91 102 103 101 105 106 79 107 108 4 44 181 81 60 74" fromJunction="77" toJunction="0" />
	<route id="r57" edges="132 133 91 102 103 101 105 106 79 107 108 4 3 60 74" fromJunction="77" toJunction="0" />
	<route id="r56" edges="154 41 47 56 55 165" fromJunction="3" toJunction="10" />
	<vehicle id="v11" depart="0" route="r57" type="CarDefault" departLane="random" />
	<vehicle id="v88" depart="0" route="r56" type="CarDefault" departLane="random" />
	<vehicle id="v7" depart="1" route="r57" type="CarDefault" departLane="random" />
	<vehicle id="v10" depart="1" route="r57" type="CarDefault" departLane="random" />
	<vehicle id="v87" depart="1" route="r56" type="CarDefault" departLane="random" />
	<vehicle id="v6" depart="2" route="r57" type="CarDefault" departLane="random" />
	<vehicle id="v91" depart="2" route="r56" type="CarDefault" departLane="random" />
	<vehicle id="v4" depart="3" route="r57" type="CarDefault" departLane="random" />
	<vehicle id="v90" depart="4" route="r56" type="CarDefault" departLane="random" />
	<vehicle id="v9" depart="5" route="r58" type="CarDefault" departLane="random" />
	<vehicle id="v0" depart="6" route="r57" type="CarDefault" departLane="random" />
	<vehicle id="v81" depart="6" route="r56" type="CarDefault" departLane="random" />
	<vehicle id="v83" depart="6" route="r56" type="CarDefault" departLane="random" />
	<vehicle id="v5" depart="7" route="r57" type="CarDefault" departLane="random" />
	<vehicle id="v85" depart="7" route="r56" type="CarDefault" departLane="random" />
	<vehicle id="v82" depart="8" route="r56" type="CarDefault" departLane="random" />
	<vehicle id="v84" depart="8" route="r56" type="CarDefault" departLane="random" />
	<vehicle id="v15" depart="9" route="r57" type="CarDefault" departLane="random" />
	<vehicle id="v80" depart="9" route="r56" type="CarDefault" departLane="random" />
	<vehicle id="v2" depart="10" route="r57" type="CarDefault" departLane="random" />
	<vehicle id="v3" depart="10" route="r57" type="CarDefault" departLane="random" />
	<vehicle id="v8" depart="11" route="r57" type="CarDefault" departLane="random" />
	<vehicle id="v12" depart="11" route="r57" type="CarDefault" departLane="random" />
	<vehicle id="v13" depart="11" route="r57" type="CarDefault" departLane="random" />
	<vehicle id="v86" depart="11" route="r56" type="CarDefault" departLane="random" />
	<vehicle id="v89" depart="15" route="r56" type="CarDefault" departLane="random" />
	<vehicle id="v14" depart="16" route="r57" type="CarDefault" departLane="random" />
	<vehicle id="v1" depart="18" route="r57" type="CarDefault" departLane="random" />
	<vehicle id="v95" depart="20" route="r56" type="CarDefault" departLane="random" />
	<vehicle id="v101" depart="20" route="r56" type="CarDefault" departLane="random" />
	<vehicle id="v22" depart="22" route="r57" type="CarDefault" departLane="random" />
	<vehicle id="v94" depart="22" route="r56" type="CarDefault" departLane="random" />
	<vehicle id="v96" depart="22" route="r56" type="CarDefault" departLane="random" />
	<vehicle id="v100" depart="22" route="r56" type="CarDefault" departLane="random" />
	<vehicle id="v23" depart="24" route="r57" type="CarDefault" departLane="random" />
	<vehicle id="v97" depart="24" route="r56" type="CarDefault" departLane="random" />
	<vehicle id="v102" depart="24" route="r56" type="CarDefault" departLane="random" />
	<vehicle id="v25" depart="26" route="r57" type="CarDefault" departLane="random" />
	<vehicle id="v27" depart="26" route="r57" type="CarDefault" departLane="random" />
	<vehicle id="v93" depart="27" route="r56" type="CarDefault" departLane="random" />
	<vehicle id="v26" depart="28" route="r57" type="CarDefault" departLane="random" />
	<vehicle id="v20" depart="31" route="r57" type="CarDefault" departLane="random" />
	<vehicle id="v92" depart="31" route="r56" type="CarDefault" departLane="random" />
	<vehicle id="v99" depart="33" route="r56" type="CarDefault" departLane="random" />
	<vehicle id="v103" depart="33" route="r56" type="CarDefault" departLane="random" />
	<vehicle id="v17" depart="34" route="r57" type="CarDefault" departLane="random" />
	<vehicle id="v18" depart="34" route="r57" type="CarDefault" departLane="random" />
	<vehicle id="v98" depart="34" route="r56" type="CarDefault" departLane="random" />
	<vehicle id="v16" depart="35" route="r57" type="CarDefault" departLane="random" />
	<vehicle id="v28" depart="37" route="r58" type="CarDefault" departLane="random" />
	<vehicle id="v19" depart="38" route="r57" type="CarDefault" departLane="random" />
	<vehicle id="v24" depart="38" route="r57" type="CarDefault" departLane="random" />
	<vehicle id="v21" depart="39" route="r57" type="CarDefault" departLane="random" />
	<vehicle id="v33" depart="41" route="r57" type="CarDefault" departLane="random" />
	<vehicle id="v47" depart="41" route="r57" type="CarDefault" departLane="random" />
	<vehicle id="v40" depart="42" route="r57" type="CarDefault" departLane="random" />
	<vehicle id="v29" depart="43" route="r57" type="CarDefault" departLane="random" />
	<vehicle id="v43" depart="43" route="r57" type="CarDefault" departLane="random" />
	<vehicle id="v46" depart="43" route="r57" type="CarDefault" departLane="random" />
	<vehicle id="v48" depart="45" route="r58" type="CarDefault" departLane="random" />
	<vehicle id="v36" depart="46" route="r57" type="CarDefault" departLane="random" />
	<vehicle id="v104" depart="46" route="r56" type="CarDefault" departLane="random" />
	<vehicle id="v111" depart="46" route="r56" type="CarDefault" departLane="random" />
	<vehicle id="v38" depart="47" route="r57" type="CarDefault" departLane="random" />
	<vehicle id="v45" depart="47" route="r57" type="CarDefault" departLane="random" />
	<vehicle id="v32" depart="48" route="r57" type="CarDefault" departLane="random" />
	<vehicle id="v105" depart="48" route="r56" type="CarDefault" departLane="random" />
	<vehicle id="v108" depart="49" route="r56" type="CarDefault" departLane="random" />
	<vehicle id="v37" depart="51" route="r57" type="CarDefault" departLane="random" />
	<vehicle id="v109" depart="52" route="r56" type="CarDefault" departLane="random" />
	<vehicle id="v30" depart="53" route="r57" type="CarDefault" departLane="random" />
	<vehicle id="v41" depart="53" route="r57" type="CarDefault" departLane="random" />
	<vehicle id="v35" depart="54" route="r57" type="CarDefault" departLane="random" />
	<vehicle id="v39" depart="54" route="r57" type="CarDefault" departLane="random" />
	<vehicle id="v106" depart="54" route="r56" type="CarDefault" departLane="random" />
	<vehicle id="v107" depart="54" route="r56" type="CarDefault" departLane="random" />
	<vehicle id="v42" depart="56" route="r57" type="CarDefault" departLane="random" />
	<vehicle id="v112" depart="56" route="r56" type="CarDefault" departLane="random" />
	<vehicle id="v31" depart="57" route="r57" type="CarDefault" departLane="random" />
	<vehicle id="v44" depart="57" route="r57" type="CarDefault" departLane="random" />
	<vehicle id="v110" depart="58" route="r56" type="CarDefault" departLane="random" />
	<vehicle id="v34" depart="59" route="r57" type="CarDefault" departLane="random" />
	<vehicle id="v113" depart="59" route="r56" type="CarDefault" departLane="random" />
	<vehicle id="v133" depart="60" route="r56" type="CarDefault" departLane="random" />
	<vehicle id="v53" depart="61" route="r57" type="CarDefault" departLane="random" />
	<vehicle id="v124" depart="61" route="r56" type="CarDefault" departLane="random" />
	<vehicle id="v50" depart="63" route="r57" type="CarDefault" departLane="random" />
	<vehicle id="v55" depart="63" route="r57" type="CarDefault" departLane="random" />
	<vehicle id="v114" depart="63" route="r56" type="CarDefault" departLane="random" />
	<vehicle id="v120" depart="63" route="r56" type="CarDefault" departLane="random" />
	<vehicle id="v115" depart="64" route="r56" type="CarDefault" departLane="random" />
	<vehicle id="v127" depart="65" route="r56" type="CarDefault" departLane="random" />
	<vehicle id="v116" depart="66" route="r56" type="CarDefault" departLane="random" />
	<vehicle id="v122" depart="66" route="r56" type="CarDefault" departLane="random" />
	<vehicle id="v132" depart="66" route="r56" type="CarDefault" departLane="random" />
	<vehicle id="v59" depart="67" route="r57" type="CarDefault" departLane="random" />
	<vehicle id="v61" depart="67" route="r57" type="CarDefault" departLane="random" />
	<vehicle id="v49" depart="69" route="r57" type="CarDefault" departLane="random" />
	<vehicle id="v54" depart="69" route="r57" type="CarDefault" departLane="random" />
	<vehicle id="v125" depart="69" route="r56" type="CarDefault" departLane="random" />
	<vehicle id="v119" depart="70" route="r56" type="CarDefault" departLane="random" />
	<vehicle id="v131" depart="70" route="r56" type="CarDefault" departLane="random" />
	<vehicle id="v52" depart="71" route="r57" type="CarDefault" departLane="random" />
	<vehicle id="v128" depart="71" route="r56" type="CarDefault" departLane="random" />
	<vehicle id="v129" depart="71" route="r56" type="CarDefault" departLane="random" />
	<vehicle id="v63" depart="72" route="r57" type="CarDefault" departLane="random" />
	<vehicle id="v117" depart="72" route="r56" type="CarDefault" departLane="random" />
	<vehicle id="v121" depart="72" route="r56" type="CarDefault" departLane="random" />
	<vehicle id="v126" depart="72" route="r56" type="CarDefault" departLane="random" />
	<vehicle id="v56" depart="73" route="r57" type="CarDefault" departLane="random" />
	<vehicle id="v60" depart="73" route="r57" type="CarDefault" departLane="random" />
	<vehicle id="v58" depart="74" route="r57" type="CarDefault" departLane="random" />
	<vehicle id="v65" depart="74" route="r58" type="CarDefault" departLane="random" />
	<vehicle id="v118" depart="74" route="r56" type="CarDefault" departLane="random" />
	<vehicle id="v57" depart="75" route="r57" type="CarDefault" departLane="random" />
	<vehicle id="v62" depart="75" route="r57" type="CarDefault" departLane="random" />
	<vehicle id="v51" depart="77" route="r57" type="CarDefault" departLane="random" />
	<vehicle id="v64" depart="77" route="r57" type="CarDefault" departLane="random" />
	<vehicle id="v123" depart="78" route="r56" type="CarDefault" departLane="random" />
	<vehicle id="v130" depart="79" route="r56" type="CarDefault" departLane="random" />
	<vehicle id="v70" depart="80" route="r57" type="CarDefault" departLane="random" />
	<vehicle id="v73" depart="80" route="r57" type="CarDefault" departLane="random" />
	<vehicle id="v134" depart="80" route="r56" type="CarDefault" departLane="random" />
	<vehicle id="v144" depart="80" route="r56" type="CarDefault" departLane="random" />
	<vehicle id="v138" depart="82" route="r56" type="CarDefault" departLane="random" />
	<vehicle id="v143" depart="84" route="r56" type="CarDefault" departLane="random" />
	<vehicle id="v140" depart="85" route="r56" type="CarDefault" departLane="random" />
	<vehicle id="v71" depart="86" route="r57" type="CarDefault" departLane="random" />
	<vehicle id="v139" depart="86" route="r56" type="CarDefault" departLane="random" />
	<vehicle id="v75" depart="87" route="r57" type="CarDefault" departLane="random" />
	<vehicle id="v79" depart="87" route="r58" type="CarDefault" departLane="random" />
	<vehicle id="v141" depart="87" route="r56" type="CarDefault" departLane="random" />
	<vehicle id="v67" depart="88" route="r57" type="CarDefault" departLane="random" />
	<vehicle id="v72" depart="88" route="r57" type="CarDefault" departLane="random" />
	<vehicle id="v137" depart="88" route="r56" type="CarDefault" departLane="random" />
	<vehicle id="v142" depart="88" route="r56" type="CarDefault" departLane="random" />
	<vehicle id="v146" depart="89" route="r56" type="CarDefault" departLane="random" />
	<vehicle id="v76" depart="90" route="r57" type="CarDefault" departLane="random" />
	<vehicle id="v74" depart="91" route="r57" type="CarDefault" departLane="random" />
	<vehicle id="v147" depart="91" route="r56" type="CarDefault" departLane="random" />
	<vehicle id="v66" depart="92" route="r57" type="CarDefault" departLane="random" />
	<vehicle id="v69" depart="92" route="r57" type="CarDefault" departLane="random" />
	<vehicle id="v136" depart="92" route="r56" type="CarDefault" departLane="random" />
	<vehicle id="v68" depart="94" route="r57" type="CarDefault" departLane="random" />
	<vehicle id="v78" depart="96" route="r57" type="CarDefault" departLane="random" />
	<vehicle id="v77" depart="98" route="r57" type="CarDefault" departLane="random" />
	<vehicle id="v145" depart="98" route="r56" type="CarDefault" departLane="random" />
	<vehicle id="v135" depart="99" route="r56" type="CarDefault" departLane="random" />
</routes>