<?xml version='1.0' encoding='utf-8'?>
<routes>
	<vType accel="3.0" decel="6.0" id="CarDefault" length="5.0" minGap="2.5" maxSpeed="50.0" sigma="0.5" />
	<route id="r230" edges="132 133 43 153 144 145 146 147 135 136 137 138 139 140 141 142" fromJunction="77" toJunction="66" />
	<vehicle id="v0" depart="0.0" route="r230" type="CarDefault" departLane="random" />
	<vehicle id="v1" depart="7.41" route="r230" type="CarDefault" departLane="random" />
	<vehicle id="v2" depart="14.81" route="r230" type="CarDefault" departLane="random" />
	<vehicle id="v3" depart="22.22" route="r230" type="CarDefault" departLane="random" />
	<vehicle id="v4" depart="29.63" route="r230" type="CarDefault" departLane="random" />
	<vehicle id="v5" depart="37.04" route="r230" type="CarDefault" departLane="random" />
	<vehicle id="v6" depart="44.44" route="r230" type="CarDefault" departLane="random" />
	<vehicle id="v7" depart="51.85" route="r230" type="CarDefault" departLane="random" />
	<vehicle id="v8" depart="59.26" route="r230" type="CarDefault" departLane="random" />
	<vehicle id="v9" depart="66.67" route="r230" type="CarDefault" departLane="random" />
	<vehicle id="v10" depart="74.07" route="r230" type="CarDefault" departLane="random" />
	<vehicle id="v11" depart="81.48" route="r230" type="CarDefault" departLane="random" />
	<vehicle id="v12" depart="88.89" route="r230" type="CarDefault" departLane="random" />
	<vehicle id="v13" depart="96.3" route="r230" type="CarDefault" departLane="random" />
	<vehicle id="v14" depart="103.7" route="r230" type="CarDefault" departLane="random" />
	<vehicle id="v15" depart="111.11" route="r230" type="CarDefault" departLane="random" />
	<vehicle id="v30" depart="114" route="r230" type="CarDefault" departLane="random" />
	<vehicle id="v16" depart="118.52" route="r230" type="CarDefault" departLane="random" />
	<vehicle id="v17" depart="125.93" route="r230" type="CarDefault" departLane="random" />
	<vehicle id="v18" depart="133.33" route="r230" type="CarDefault" departLane="random" />
	<vehicle id="v19" depart="140.74" route="r230" type="CarDefault" departLane="random" />
	<vehicle id="v20" depart="148.15" route="r230" type="CarDefault" departLane="random" />
	<vehicle id="v28" depart="151" route="r230" type="CarDefault" departLane="random" />
	<vehicle id="v21" depart="155.56" route="r230" type="CarDefault" departLane="random" />
	<vehicle id="v32" depart="160" route="r230" type="CarDefault" departLane="random" />
	<vehicle id="v22" depart="162.96" route="r230" type="CarDefault" departLane="random" />
	<vehicle id="v23" depart="170.37" route="r230" type="CarDefault" departLane="random" />
	<vehicle id="v31" depart="171" route="r230" type="CarDefault" departLane="random" />
	<vehicle id="v24" depart="177.78" route="r230" type="CarDefault" departLane="random" />
	<vehicle id="v25" depart="185.19" route="r230" type="CarDefault" departLane="random" />
	<vehicle id="v29" depart="192" route="r230" type="CarDefault" departLane="random" />
	<vehicle id="v26" depart="192.59" route="r230" type="CarDefault" departLane="random" />
	<vehicle id="v27" depart="200.0" route="r230" type="CarDefault" departLane="random" />
	<vehicle id="v33" depart="200.0" route="r230" type="CarDefault" departLane="random" />
	<vehicle id="v34" depart="205.13" route="r230" type="CarDefault" departLane="random" />
	<vehicle id="v35" depart="210.26" route="r230" type="CarDefault" departLane="random" />
	<vehicle id="v36" depart="215.38" route="r230" type="CarDefault" departLane="random" />
	<vehicle id="v37" depart="220.51" route="r230" type="CarDefault" departLane="random" />
	<vehicle id="v38" depart="225.64" route="r230" type="CarDefault" departLane="random" />
	<vehicle id="v39" depart="230.77" route="r230" type="CarDefault" departLane="random" />
	<vehicle id="v40" depart="235.9" route="r230" type="CarDefault" departLane="random" />
	<vehicle id="v41" depart="241.03" route="r230" type="CarDefault" departLane="random" />
	<vehicle id="v42" depart="246.15" route="r230" type="CarDefault" departLane="random" />
	<vehicle id="v43" depart="251.28" route="r230" type="CarDefault" departLane="random" />
	<vehicle id="v44" depart="256.41" route="r230" type="CarDefault" departLane="random" />
	<vehicle id="v45" depart="261.54" route="r230" type="CarDefault" departLane="random" />
	<vehicle id="v46" depart="266.67" route="r230" type="CarDefault" departLane="random" />
	<vehicle id="v47" depart="271.79" route="r230" type="CarDefault" departLane="random" />
	<vehicle id="v48" depart="276.92" route="r230" type="CarDefault" departLane="random" />
	<vehicle id="v49" depart="282.05" route="r230" type="CarDefault" departLane="random" />
	<vehicle id="v50" depart="287.18" route="r230" type="CarDefault" departLane="random" />
	<vehicle id="v51" depart="292.31" route="r230" type="CarDefault" departLane="random" />
	<vehicle id="v52" depart="297.44" route="r230" type="CarDefault" departLane="random" />
	<vehicle id="v83" depart="301" route="r230" type="CarDefault" departLane="random" />
	<vehicle id="v80" depart="302" route="r230" type="CarDefault" departLane="random" />
	<vehicle id="v53" depart="302.56" route="r230" type="CarDefault" departLane="random" />
	<vehicle id="v54" depart="307.69" route="r230" type="CarDefault" departLane="random" />
	<vehicle id="v55" depart="312.82" route="r230" type="CarDefault" departLane="random" />
	<vehicle id="v56" depart="317.95" route="r230" type="CarDefault" departLane="random" />
	<vehicle id="v81" depart="321" route="r230" type="CarDefault" departLane="random" />
	<vehicle id="v79" depart="323" route="r230" type="CarDefault" departLane="random" />
	<vehicle id="v57" depart="323.08" route="r230" type="CarDefault" departLane="random" />
	<vehicle id="v58" depart="328.21" route="r230" type="CarDefault" departLane="random" />
	<vehicle id="v85" depart="329" route="r230" type="CarDefault" departLane="random" />
	<vehicle id="v59" depart="333.33" route="r230" type="CarDefault" departLane="random" />
	<vehicle id="v60" depart="338.46" route="r230" type="CarDefault" departLane="random" />
	<vehicle id="v61" depart="343.59" route="r230" type="CarDefault" departLane="random" />
	<vehicle id="v62" depart="348.72" route="r230" type="CarDefault" departLane="random" />
	<vehicle id="v82" depart="352" route="r230" type="CarDefault" departLane="random" />
	<vehicle id="v63" depart="353.85" route="r230" type="CarDefault" departLane="random" />
	<vehicle id="v64" depart="358.97" route="r230" type="CarDefault" departLane="random" />
	<vehicle id="v65" depart="364.1" route="r230" type="CarDefault" departLane="random" />
	<vehicle id="v66" depart="369.23" route="r230" type="CarDefault" departLane="random" />
	<vehicle id="v75" depart="374" route="r230" type="CarDefault" departLane="random" />
	<vehicle id="v76" depart="374" route="r230" type="CarDefault" departLane="random" />
	<vehicle id="v67" depart="374.36" route="r230" type="CarDefault" departLane="random" />
	<vehicle id="v68" depart="379.49" route="r230" type="CarDefault" departLane="random" />
	<vehicle id="v73" depart="382" route="r230" type="CarDefault" departLane="random" />
	<vehicle id="v69" depart="384.62" route="r230" type="CarDefault" departLane="random" />
	<vehicle id="v74" depart="386" route="r230" type="CarDefault" departLane="random" />
	<vehicle id="v77" depart="387" route="r230" type="CarDefault" departLane="random" />
	<vehicle id="v84" depart="387" route="r230" type="CarDefault" departLane="random" />
	<vehicle id="v70" depart="389.74" route="r230" type="CarDefault" departLane="random" />
	<vehicle id="v71" depart="394.87" route="r230" type="CarDefault" departLane="random" />
	<vehicle id="v78" depart="399" route="r230" type="CarDefault" departLane="random" />
	<vehicle id="v72" depart="400.0" route="r230" type="CarDefault" departLane="random" />
	<vehicle id="v86" depart="400.0" route="r230" type="CarDefault" departLane="random" />
	<vehicle id="v87" depart="403.08" route="r230" type="CarDefault" departLane="random" />
	<vehicle id="v88" depart="406.15" route="r230" type="CarDefault" departLane="random" />
	<vehicle id="v89" depart="409.23" route="r230" type="CarDefault" departLane="random" />
	<vehicle id="v90" depart="412.31" route="r230" type="CarDefault" departLane="random" />
	<vehicle id="v91" depart="415.38" route="r230" type="CarDefault" departLane="random" />
	<vehicle id="v92" depart="418.46" route="r230" type="CarDefault" departLane="random" />
	<vehicle id="v93" depart="421.54" route="r230" type="CarDefault" departLane="random" />
	<vehicle id="v94" depart="424.62" route="r230" type="CarDefault" departLane="random" />
	<vehicle id="v95" depart="427.69" route="r230" type="CarDefault" departLane="random" />
	<vehicle id="v96" depart="430.77" route="r230" type="CarDefault" departLane="random" />
	<vehicle id="v97" depart="433.85" route="r230" type="CarDefault" departLane="random" />
	<vehicle id="v98" depart="436.92" route="r230" type="CarDefault" departLane="random" />
	<vehicle id="v99" depart="440.0" route="r230" type="CarDefault" departLane="random" />
	<vehicle id="v100" depart="443.08" route="r230" type="CarDefault" departLane="random" />
	<vehicle id="v101" depart="446.15" route="r230" type="CarDefault" departLane="random" />
	<vehicle id="v102" depart="449.23" route="r230" type="CarDefault" departLane="random" />
	<vehicle id="v103" depart="452.31" route="r230" type="CarDefault" departLane="random" />
	<vehicle id="v104" depart="455.38" route="r230" type="CarDefault" departLane="random" />
	<vehicle id="v105" depart="458.46" route="r230" type="CarDefault" departLane="random" />
	<vehicle id="v106" depart="461.54" route="r230" type="CarDefault" departLane="random" />
	<vehicle id="v107" depart="464.62" route="r230" type="CarDefault" departLane="random" />
	<vehicle id="v108" depart="467.69" route="r230" type="CarDefault" departLane="random" />
	<vehicle id="v109" depart="470.77" route="r230" type="CarDefault" departLane="random" />
	<vehicle id="v110" depart="473.85" route="r230" type="CarDefault" departLane="random" />
	<vehicle id="v111" depart="476.92" route="r230" type="CarDefault" departLane="random" />
	<vehicle id="v112" depart="480.0" route="r230" type="CarDefault" departLane="random" />
	<vehicle id="v113" depart="483.08" route="r230" type="CarDefault" departLane="random" />
	<vehicle id="v114" depart="486.15" route="r230" type="CarDefault" departLane="random" />
	<vehicle id="v115" depart="489.23" route="r230" type="CarDefault" departLane="random" />
	<vehicle id="v116" depart="492.31" route="r230" type="CarDefault" departLane="random" />
	<vehicle id="v117" depart="495.38" route="r230" type="CarDefault" departLane="random" />
	<vehicle id="v118" depart="498.46" route="r230" type="CarDefault" departLane="random" />
	<vehicle id="v152" depart="501" route="r230" type="CarDefault" departLane="random" />
	<vehicle id="v119" depart="501.54" route="r230" type="CarDefault" departLane="random" />
	<vehicle id="v120" depart="504.62" route="r230" type="CarDefault" departLane="random" />
	<vehicle id="v121" depart="507.69" route="r230" type="CarDefault" departLane="random" />
	<vehicle id="v122" depart="510.77" route="r230" type="CarDefault" departLane="random" />
	<vehicle id="v123" depart="513.85" route="r230" type="CarDefault" departLane="random" />
	<vehicle id="v168" depart="514" route="r230" type="CarDefault" departLane="random" />
	<vehicle id="v124" depart="516.92" route="r230" type="CarDefault" departLane="random" />
	<vehicle id="v125" depart="520.0" route="r230" type="CarDefault" departLane="random" />
	<vehicle id="v155" depart="520" route="r230" type="CarDefault" departLane="random" />
	<vehicle id="v159" depart="521" route="r230" type="CarDefault" departLane="random" />
	<vehicle id="v126" depart="523.08" route="r230" type="CarDefault" departLane="random" />
	<vehicle id="v127" depart="526.15" route="r230" type="CarDefault" departLane="random" />
	<vehicle id="v128" depart="529.23" route="r230" type="CarDefault" departLane="random" />
	<vehicle id="v156" depart="532" route="r230" type="CarDefault" departLane="random" />
	<vehicle id="v129" depart="532.31" route="r230" type="CarDefault" departLane="random" />
	<vehicle id="v130" depart="535.38" route="r230" type="CarDefault" departLane="random" />
	<vehicle id="v131" depart="538.46" route="r230" type="CarDefault" departLane="random" />
	<vehicle id="v164" depart="541" route="r230" type="CarDefault" departLane="random" />
	<vehicle id="v132" depart="541.54" route="r230" type="CarDefault" departLane="random" />
	<vehicle id="v133" depart="544.62" route="r230" type="CarDefault" departLane="random" />
	<vehicle id="v134" depart="547.69" route="r230" type="CarDefault" departLane="random" />
	<vehicle id="v161" depart="548" route="r230" type="CarDefault" departLane="random" />
	<vehicle id="v135" depart="550.77" route="r230" type="CarDefault" departLane="random" />
	<vehicle id="v136" depart="553.85" route="r230" type="CarDefault" departLane="random" />
	<vehicle id="v137" depart="556.92" route="r230" type="CarDefault" departLane="random" />
	<vehicle id="v158" depart="557" route="r230" type="CarDefault" departLane="random" />
	<vehicle id="v163" depart="558" route="r230" type="CarDefault" departLane="random" />
	<vehicle id="v154" depart="559" route="r230" type="CarDefault" departLane="random" />
	<vehicle id="v166" depart="559" route="r230" type="CarDefault" departLane="random" />
	<vehicle id="v138" depart="560.0" route="r230" type="CarDefault" departLane="random" />
	<vehicle id="v153" depart="563" route="r230" type="CarDefault" departLane="random" />
	<vehicle id="v139" depart="563.08" route="r230" type="CarDefault" departLane="random" />
	<vehicle id="v140" depart="566.15" route="r230" type="CarDefault" departLane="random" />
	<vehicle id="v141" depart="569.23" route="r230" type="CarDefault" departLane="random" />
	<vehicle id="v142" depart="572.31" route="r230" type="CarDefault" departLane="random" />
	<vehicle id="v157" depart="575" route="r230" type="CarDefault" departLane="random" />
	<vehicle id="v143" depart="575.38" route="r230" type="CarDefault" departLane="random" />
	<vehicle id="v144" depart="578.46" route="r230" type="CarDefault" departLane="random" />
	<vehicle id="v167" depart="579" route="r230" type="CarDefault" departLane="random" />
	<vehicle id="v145" depart="581.54" route="r230" type="CarDefault" departLane="random" />
	<vehicle id="v146" depart="584.62" route="r230" type="CarDefault" departLane="random" />
	<vehicle id="v147" depart="587.69" route="r230" type="CarDefault" departLane="random" />
	<vehicle id="v160" depart="588" route="r230" type="CarDefault" departLane="random" />
	<vehicle id="v162" depart="590" route="r230" type="CarDefault" departLane="random" />
	<vehicle id="v148" depart="590.77" route="r230" type="CarDefault" departLane="random" />
	<vehicle id="v165" depart="591" route="r230" type="CarDefault" departLane="random" />
	<vehicle id="v149" depart="593.85" route="r230" type="CarDefault" departLane="random" />
	<vehicle id="v150" depart="596.92" route="r230" type="CarDefault" departLane="random" />
	<vehicle id="v151" depart="600.0" route="r230" type="CarDefault" departLane="random" />
</routes>