<?xml version='1.0' encoding='utf-8'?>
<routes>
	<vType accel="3.0" decel="6.0" id="CarDefault" length="5.0" minGap="2.5" maxSpeed="50.0" sigma="0.5" />
	<route id="r461" edges="132 133 43 153 144 145 146 147 135 136 137 138 139 140 141 142" fromJunction="77" toJunction="66" />
	<vehicle id="v300" depart="0.0" route="r461" type="CarDefault" departLane="random" />
	<vehicle id="v301" depart="3.01" route="r461" type="CarDefault" departLane="random" />
	<vehicle id="v302" depart="6.02" route="r461" type="CarDefault" departLane="random" />
	<vehicle id="v303" depart="9.03" route="r461" type="CarDefault" departLane="random" />
	<vehicle id="v304" depart="12.04" route="r461" type="CarDefault" departLane="random" />
	<vehicle id="v305" depart="15.05" route="r461" type="CarDefault" departLane="random" />
	<vehicle id="v306" depart="18.06" route="r461" type="CarDefault" departLane="random" />
	<vehicle id="v307" depart="21.07" route="r461" type="CarDefault" departLane="random" />
	<vehicle id="v308" depart="24.08" route="r461" type="CarDefault" departLane="random" />
	<vehicle id="v309" depart="27.09" route="r461" type="CarDefault" departLane="random" />
	<vehicle id="v310" depart="30.1" route="r461" type="CarDefault" departLane="random" />
	<vehicle id="v311" depart="33.11" route="r461" type="CarDefault" departLane="random" />
	<vehicle id="v312" depart="36.12" route="r461" type="CarDefault" departLane="random" />
	<vehicle id="v313" depart="39.13" route="r461" type="CarDefault" departLane="random" />
	<vehicle id="v314" depart="42.14" route="r461" type="CarDefault" departLane="random" />
	<vehicle id="v315" depart="45.15" route="r461" type="CarDefault" departLane="random" />
	<vehicle id="v316" depart="48.16" route="r461" type="CarDefault" departLane="random" />
	<vehicle id="v317" depart="51.17" route="r461" type="CarDefault" departLane="random" />
	<vehicle id="v318" depart="54.18" route="r461" type="CarDefault" departLane="random" />
	<vehicle id="v319" depart="57.19" route="r461" type="CarDefault" departLane="random" />
	<vehicle id="v320" depart="60.2" route="r461" type="CarDefault" departLane="random" />
	<vehicle id="v321" depart="63.21" route="r461" type="CarDefault" departLane="random" />
	<vehicle id="v322" depart="66.22" route="r461" type="CarDefault" departLane="random" />
	<vehicle id="v323" depart="69.23" route="r461" type="CarDefault" departLane="random" />
	<vehicle id="v324" depart="72.24" route="r461" type="CarDefault" departLane="random" />
	<vehicle id="v325" depart="75.25" route="r461" type="CarDefault" departLane="random" />
	<vehicle id="v326" depart="78.26" route="r461" type="CarDefault" departLane="random" />
	<vehicle id="v327" depart="81.27" route="r461" type="CarDefault" departLane="random" />
	<vehicle id="v328" depart="84.28" route="r461" type="CarDefault" departLane="random" />
	<vehicle id="v329" depart="87.29" route="r461" type="CarDefault" departLane="random" />
	<vehicle id="v330" depart="90.3" route="r461" type="CarDefault" departLane="random" />
	<vehicle id="v331" depart="93.31" route="r461" type="CarDefault" departLane="random" />
	<vehicle id="v332" depart="96.32" route="r461" type="CarDefault" departLane="random" />
	<vehicle id="v333" depart="99.33" route="r461" type="CarDefault" departLane="random" />
	<vehicle id="v334" depart="102.34" route="r461" type="CarDefault" departLane="random" />
	<vehicle id="v335" depart="105.35" route="r461" type="CarDefault" departLane="random" />
	<vehicle id="v336" depart="108.36" route="r461" type="CarDefault" departLane="random" />
	<vehicle id="v337" depart="111.37" route="r461" type="CarDefault" departLane="random" />
	<vehicle id="v338" depart="114.38" route="r461" type="CarDefault" departLane="random" />
	<vehicle id="v339" depart="117.39" route="r461" type="CarDefault" departLane="random" />
	<vehicle id="v340" depart="120.4" route="r461" type="CarDefault" departLane="random" />
	<vehicle id="v341" depart="123.41" route="r461" type="CarDefault" departLane="random" />
	<vehicle id="v342" depart="126.42" route="r461" type="CarDefault" departLane="random" />
	<vehicle id="v343" depart="129.43" route="r461" type="CarDefault" departLane="random" />
	<vehicle id="v344" depart="132.44" route="r461" type="CarDefault" departLane="random" />
	<vehicle id="v345" depart="135.45" route="r461" type="CarDefault" departLane="random" />
	<vehicle id="v346" depart="138.46" route="r461" type="CarDefault" departLane="random" />
	<vehicle id="v347" depart="141.47" route="r461" type="CarDefault" departLane="random" />
	<vehicle id="v348" depart="144.48" route="r461" type="CarDefault" departLane="random" />
	<vehicle id="v349" depart="147.49" route="r461" type="CarDefault" departLane="random" />
	<vehicle id="v350" depart="150.5" route="r461" type="CarDefault" departLane="random" />
	<vehicle id="v351" depart="153.51" route="r461" type="CarDefault" departLane="random" />
	<vehicle id="v352" depart="156.52" route="r461" type="CarDefault" departLane="random" />
	<vehicle id="v353" depart="159.53" route="r461" type="CarDefault" departLane="random" />
	<vehicle id="v354" depart="162.54" route="r461" type="CarDefault" departLane="random" />
	<vehicle id="v355" depart="165.55" route="r461" type="CarDefault" departLane="random" />
	<vehicle id="v356" depart="168.56" route="r461" type="CarDefault" departLane="random" />
	<vehicle id="v357" depart="171.57" route="r461" type="CarDefault" departLane="random" />
	<vehicle id="v358" depart="174.58" route="r461" type="CarDefault" departLane="random" />
	<vehicle id="v359" depart="177.59" route="r461" type="CarDefault" departLane="random" />
	<vehicle id="v360" depart="180.6" route="r461" type="CarDefault" departLane="random" />
	<vehicle id="v361" depart="183.61" route="r461" type="CarDefault" departLane="random" />
	<vehicle id="v362" depart="186.62" route="r461" type="CarDefault" departLane="random" />
	<vehicle id="v363" depart="189.63" route="r461" type="CarDefault" departLane="random" />
	<vehicle id="v364" depart="192.64" route="r461" type="CarDefault" departLane="random" />
	<vehicle id="v365" depart="195.65" route="r461" type="CarDefault" departLane="random" />
	<vehicle id="v366" depart="198.66" route="r461" type="CarDefault" departLane="random" />
	<vehicle id="v367" depart="201.67" route="r461" type="CarDefault" departLane="random" />
	<vehicle id="v368" depart="204.68" route="r461" type="CarDefault" departLane="random" />
	<vehicle id="v369" depart="207.69" route="r461" type="CarDefault" departLane="random" />
	<vehicle id="v370" depart="210.7" route="r461" type="CarDefault" departLane="random" />
	<vehicle id="v371" depart="213.71" route="r461" type="CarDefault" departLane="random" />
	<vehicle id="v372" depart="216.72" route="r461" type="CarDefault" departLane="random" />
	<vehicle id="v373" depart="219.73" route="r461" type="CarDefault" departLane="random" />
	<vehicle id="v374" depart="222.74" route="r461" type="CarDefault" departLane="random" />
	<vehicle id="v375" depart="225.75" route="r461" type="CarDefault" departLane="random" />
	<vehicle id="v376" depart="228.76" route="r461" type="CarDefault" departLane="random" />
	<vehicle id="v377" depart="231.77" route="r461" type="CarDefault" departLane="random" />
	<vehicle id="v378" depart="234.78" route="r461" type="CarDefault" departLane="random" />
	<vehicle id="v379" depart="237.79" route="r461" type="CarDefault" departLane="random" />
	<vehicle id="v380" depart="240.8" route="r461" type="CarDefault" departLane="random" />
	<vehicle id="v381" depart="243.81" route="r461" type="CarDefault" departLane="random" />
	<vehicle id="v382" depart="246.82" route="r461" type="CarDefault" departLane="random" />
	<vehicle id="v383" depart="249.83" route="r461" type="CarDefault" departLane="random" />
	<vehicle id="v384" depart="252.84" route="r461" type="CarDefault" departLane="random" />
	<vehicle id="v385" depart="255.85" route="r461" type="CarDefault" departLane="random" />
	<vehicle id="v386" depart="258.86" route="r461" type="CarDefault" departLane="random" />
	<vehicle id="v387" depart="261.87" route="r461" type="CarDefault" departLane="random" />
	<vehicle id="v388" depart="264.88" route="r461" type="CarDefault" departLane="random" />
	<vehicle id="v389" depart="267.89" route="r461" type="CarDefault" departLane="random" />
	<vehicle id="v390" depart="270.9" route="r461" type="CarDefault" departLane="random" />
	<vehicle id="v391" depart="273.91" route="r461" type="CarDefault" departLane="random" />
	<vehicle id="v392" depart="276.92" route="r461" type="CarDefault" departLane="random" />
	<vehicle id="v393" depart="279.93" route="r461" type="CarDefault" departLane="random" />
	<vehicle id="v394" depart="282.94" route="r461" type="CarDefault" departLane="random" />
	<vehicle id="v395" depart="285.95" route="r461" type="CarDefault" departLane="random" />
	<vehicle id="v396" depart="288.96" route="r461" type="CarDefault" departLane="random" />
	<vehicle id="v397" depart="291.97" route="r461" type="CarDefault" departLane="random" />
	<vehicle id="v398" depart="294.98" route="r461" type="CarDefault" departLane="random" />
	<vehicle id="v399" depart="297.99" route="r461" type="CarDefault" departLane="random" />
	<vehicle id="v400" depart="301.0" route="r461" type="CarDefault" departLane="random" />
	<vehicle id="v401" depart="304.01" route="r461" type="CarDefault" departLane="random" />
	<vehicle id="v402" depart="307.02" route="r461" type="CarDefault" departLane="random" />
	<vehicle id="v403" depart="310.03" route="r461" type="CarDefault" departLane="random" />
	<vehicle id="v404" depart="313.04" route="r461" type="CarDefault" departLane="random" />
	<vehicle id="v405" depart="316.05" route="r461" type="CarDefault" departLane="random" />
	<vehicle id="v406" depart="319.06" route="r461" type="CarDefault" departLane="random" />
	<vehicle id="v407" depart="322.07" route="r461" type="CarDefault" departLane="random" />
	<vehicle id="v408" depart="325.08" route="r461" type="CarDefault" departLane="random" />
	<vehicle id="v409" depart="328.09" route="r461" type="CarDefault" departLane="random" />
	<vehicle id="v410" depart="331.1" route="r461" type="CarDefault" departLane="random" />
	<vehicle id="v411" depart="334.11" route="r461" type="CarDefault" departLane="random" />
	<vehicle id="v412" depart="337.12" route="r461" type="CarDefault" departLane="random" />
	<vehicle id="v413" depart="340.13" route="r461" type="CarDefault" departLane="random" />
	<vehicle id="v414" depart="343.14" route="r461" type="CarDefault" departLane="random" />
	<vehicle id="v415" depart="346.15" route="r461" type="CarDefault" departLane="random" />
	<vehicle id="v416" depart="349.16" route="r461" type="CarDefault" departLane="random" />
	<vehicle id="v417" depart="352.17" route="r461" type="CarDefault" departLane="random" />
	<vehicle id="v418" depart="355.18" route="r461" type="CarDefault" departLane="random" />
	<vehicle id="v419" depart="358.19" route="r461" type="CarDefault" departLane="random" />
	<vehicle id="v420" depart="361.2" route="r461" type="CarDefault" departLane="random" />
	<vehicle id="v421" depart="364.21" route="r461" type="CarDefault" departLane="random" />
	<vehicle id="v422" depart="367.22" route="r461" type="CarDefault" departLane="random" />
	<vehicle id="v423" depart="370.23" route="r461" type="CarDefault" departLane="random" />
	<vehicle id="v424" depart="373.24" route="r461" type="CarDefault" departLane="random" />
	<vehicle id="v425" depart="376.25" route="r461" type="CarDefault" departLane="random" />
	<vehicle id="v426" depart="379.26" route="r461" type="CarDefault" departLane="random" />
	<vehicle id="v427" depart="382.27" route="r461" type="CarDefault" departLane="random" />
	<vehicle id="v428" depart="385.28" route="r461" type="CarDefault" departLane="random" />
	<vehicle id="v429" depart="388.29" route="r461" type="CarDefault" departLane="random" />
	<vehicle id="v430" depart="391.3" route="r461" type="CarDefault" departLane="random" />
	<vehicle id="v431" depart="394.31" route="r461" type="CarDefault" departLane="random" />
	<vehicle id="v432" depart="397.32" route="r461" type="CarDefault" departLane="random" />
	<vehicle id="v433" depart="400.33" route="r461" type="CarDefault" departLane="random" />
	<vehicle id="v434" depart="403.34" route="r461" type="CarDefault" departLane="random" />
	<vehicle id="v435" depart="406.35" route="r461" type="CarDefault" departLane="random" />
	<vehicle id="v436" depart="409.36" route="r461" type="CarDefault" departLane="random" />
	<vehicle id="v437" depart="412.37" route="r461" type="CarDefault" departLane="random" />
	<vehicle id="v438" depart="415.38" route="r461" type="CarDefault" departLane="random" />
	<vehicle id="v439" depart="418.39" route="r461" type="CarDefault" departLane="random" />
	<vehicle id="v440" depart="421.4" route="r461" type="CarDefault" departLane="random" />
	<vehicle id="v441" depart="424.41" route="r461" type="CarDefault" departLane="random" />
	<vehicle id="v442" depart="427.42" route="r461" type="CarDefault" departLane="random" />
	<vehicle id="v443" depart="430.43" route="r461" type="CarDefault" departLane="random" />
	<vehicle id="v444" depart="433.44" route="r461" type="CarDefault" departLane="random" />
	<vehicle id="v445" depart="436.45" route="r461" type="CarDefault" departLane="random" />
	<vehicle id="v446" depart="439.46" route="r461" type="CarDefault" departLane="random" />
	<vehicle id="v447" depart="442.47" route="r461" type="CarDefault" departLane="random" />
	<vehicle id="v448" depart="445.48" route="r461" type="CarDefault" departLane="random" />
	<vehicle id="v449" depart="448.49" route="r461" type="CarDefault" departLane="random" />
	<vehicle id="v450" depart="451.51" route="r461" type="CarDefault" departLane="random" />
	<vehicle id="v451" depart="454.52" route="r461" type="CarDefault" departLane="random" />
	<vehicle id="v452" depart="457.53" route="r461" type="CarDefault" departLane="random" />
	<vehicle id="v453" depart="460.54" route="r461" type="CarDefault" departLane="random" />
	<vehicle id="v454" depart="463.55" route="r461" type="CarDefault" departLane="random" />
	<vehicle id="v455" depart="466.56" route="r461" type="CarDefault" departLane="random" />
	<vehicle id="v456" depart="469.57" route="r461" type="CarDefault" departLane="random" />
	<vehicle id="v457" depart="472.58" route="r461" type="CarDefault" departLane="random" />
	<vehicle id="v458" depart="475.59" route="r461" type="CarDefault" departLane="random" />
	<vehicle id="v459" depart="478.6" route="r461" type="CarDefault" departLane="random" />
	<vehicle id="v460" depart="481.61" route="r461" type="CarDefault" departLane="random" />
	<vehicle id="v461" depart="484.62" route="r461" type="CarDefault" departLane="random" />
	<vehicle id="v462" depart="487.63" route="r461" type="CarDefault" departLane="random" />
	<vehicle id="v463" depart="490.64" route="r461" type="CarDefault" departLane="random" />
	<vehicle id="v464" depart="493.65" route="r461" type="CarDefault" departLane="random" />
	<vehicle id="v465" depart="496.66" route="r461" type="CarDefault" departLane="random" />
	<vehicle id="v466" depart="499.67" route="r461" type="CarDefault" departLane="random" />
	<vehicle id="v467" depart="502.68" route="r461" type="CarDefault" departLane="random" />
	<vehicle id="v468" depart="505.69" route="r461" type="CarDefault" departLane="random" />
	<vehicle id="v469" depart="508.7" route="r461" type="CarDefault" departLane="random" />
	<vehicle id="v470" depart="511.71" route="r461" type="CarDefault" departLane="random" />
	<vehicle id="v471" depart="514.72" route="r461" type="CarDefault" departLane="random" />
	<vehicle id="v472" depart="517.73" route="r461" type="CarDefault" departLane="random" />
	<vehicle id="v473" depart="520.74" route="r461" type="CarDefault" departLane="random" />
	<vehicle id="v474" depart="523.75" route="r461" type="CarDefault" departLane="random" />
	<vehicle id="v475" depart="526.76" route="r461" type="CarDefault" departLane="random" />
	<vehicle id="v476" depart="529.77" route="r461" type="CarDefault" departLane="random" />
	<vehicle id="v477" depart="532.78" route="r461" type="CarDefault" departLane="random" />
	<vehicle id="v478" depart="535.79" route="r461" type="CarDefault" departLane="random" />
	<vehicle id="v479" depart="538.8" route="r461" type="CarDefault" departLane="random" />
	<vehicle id="v480" depart="541.81" route="r461" type="CarDefault" departLane="random" />
	<vehicle id="v481" depart="544.82" route="r461" type="CarDefault" departLane="random" />
	<vehicle id="v482" depart="547.83" route="r461" type="CarDefault" departLane="random" />
	<vehicle id="v483" depart="550.84" route="r461" type="CarDefault" departLane="random" />
	<vehicle id="v484" depart="553.85" route="r461" type="CarDefault" departLane="random" />
	<vehicle id="v485" depart="556.86" route="r461" type="CarDefault" departLane="random" />
	<vehicle id="v486" depart="559.87" route="r461" type="CarDefault" departLane="random" />
	<vehicle id="v487" depart="562.88" route="r461" type="CarDefault" departLane="random" />
	<vehicle id="v488" depart="565.89" route="r461" type="CarDefault" departLane="random" />
	<vehicle id="v489" depart="568.9" route="r461" type="CarDefault" departLane="random" />
	<vehicle id="v490" depart="571.91" route="r461" type="CarDefault" departLane="random" />
	<vehicle id="v491" depart="574.92" route="r461" type="CarDefault" departLane="random" />
	<vehicle id="v492" depart="577.93" route="r461" type="CarDefault" departLane="random" />
	<vehicle id="v493" depart="580.94" route="r461" type="CarDefault" departLane="random" />
	<vehicle id="v494" depart="583.95" route="r461" type="CarDefault" departLane="random" />
	<vehicle id="v495" depart="586.96" route="r461" type="CarDefault" departLane="random" />
	<vehicle id="v496" depart="589.97" route="r461" type="CarDefault" departLane="random" />
	<vehicle id="v497" depart="592.98" route="r461" type="CarDefault" departLane="random" />
	<vehicle id="v498" depart="595.99" route="r461" type="CarDefault" departLane="random" />
	<vehicle id="v499" depart="599.0" route="r461" type="CarDefault" departLane="random" />
	<vehicle id="v500" depart="602.01" route="r461" type="CarDefault" departLane="random" />
	<vehicle id="v501" depart="605.02" route="r461" type="CarDefault" departLane="random" />
	<vehicle id="v502" depart="608.03" route="r461" type="CarDefault" departLane="random" />
	<vehicle id="v503" depart="611.04" route="r461" type="CarDefault" departLane="random" />
	<vehicle id="v504" depart="614.05" route="r461" type="CarDefault" departLane="random" />
	<vehicle id="v505" depart="617.06" route="r461" type="CarDefault" departLane="random" />
	<vehicle id="v506" depart="620.07" route="r461" type="CarDefault" departLane="random" />
	<vehicle id="v507" depart="623.08" route="r461" type="CarDefault" departLane="random" />
	<vehicle id="v508" depart="626.09" route="r461" type="CarDefault" departLane="random" />
	<vehicle id="v509" depart="629.1" route="r461" type="CarDefault" departLane="random" />
	<vehicle id="v510" depart="632.11" route="r461" type="CarDefault" departLane="random" />
	<vehicle id="v511" depart="635.12" route="r461" type="CarDefault" departLane="random" />
	<vehicle id="v512" depart="638.13" route="r461" type="CarDefault" departLane="random" />
	<vehicle id="v513" depart="641.14" route="r461" type="CarDefault" departLane="random" />
	<vehicle id="v514" depart="644.15" route="r461" type="CarDefault" departLane="random" />
	<vehicle id="v515" depart="647.16" route="r461" type="CarDefault" departLane="random" />
	<vehicle id="v516" depart="650.17" route="r461" type="CarDefault" departLane="random" />
	<vehicle id="v517" depart="653.18" route="r461" type="CarDefault" departLane="random" />
	<vehicle id="v518" depart="656.19" route="r461" type="CarDefault" departLane="random" />
	<vehicle id="v519" depart="659.2" route="r461" type="CarDefault" departLane="random" />
	<vehicle id="v520" depart="662.21" route="r461" type="CarDefault" departLane="random" />
	<vehicle id="v521" depart="665.22" route="r461" type="CarDefault" departLane="random" />
	<vehicle id="v522" depart="668.23" route="r461" type="CarDefault" departLane="random" />
	<vehicle id="v523" depart="671.24" route="r461" type="CarDefault" departLane="random" />
	<vehicle id="v524" depart="674.25" route="r461" type="CarDefault" departLane="random" />
	<vehicle id="v525" depart="677.26" route="r461" type="CarDefault" departLane="random" />
	<vehicle id="v526" depart="680.27" route="r461" type="CarDefault" departLane="random" />
	<vehicle id="v527" depart="683.28" route="r461" type="CarDefault" departLane="random" />
	<vehicle id="v528" depart="686.29" route="r461" type="CarDefault" departLane="random" />
	<vehicle id="v529" depart="689.3" route="r461" type="CarDefault" departLane="random" />
	<vehicle id="v530" depart="692.31" route="r461" type="CarDefault" departLane="random" />
	<vehicle id="v531" depart="695.32" route="r461" type="CarDefault" departLane="random" />
	<vehicle id="v532" depart="698.33" route="r461" type="CarDefault" departLane="random" />
	<vehicle id="v533" depart="701.34" route="r461" type="CarDefault" departLane="random" />
	<vehicle id="v534" depart="704.35" route="r461" type="CarDefault" departLane="random" />
	<vehicle id="v535" depart="707.36" route="r461" type="CarDefault" departLane="random" />
	<vehicle id="v536" depart="710.37" route="r461" type="CarDefault" departLane="random" />
	<vehicle id="v537" depart="713.38" route="r461" type="CarDefault" departLane="random" />
	<vehicle id="v538" depart="716.39" route="r461" type="CarDefault" departLane="random" />
	<vehicle id="v539" depart="719.4" route="r461" type="CarDefault" departLane="random" />
	<vehicle id="v540" depart="722.41" route="r461" type="CarDefault" departLane="random" />
	<vehicle id="v541" depart="725.42" route="r461" type="CarDefault" departLane="random" />
	<vehicle id="v542" depart="728.43" route="r461" type="CarDefault" departLane="random" />
	<vehicle id="v543" depart="731.44" route="r461" type="CarDefault" departLane="random" />
	<vehicle id="v544" depart="734.45" route="r461" type="CarDefault" departLane="random" />
	<vehicle id="v545" depart="737.46" route="r461" type="CarDefault" departLane="random" />
	<vehicle id="v546" depart="740.47" route="r461" type="CarDefault" departLane="random" />
	<vehicle id="v547" depart="743.48" route="r461" type="CarDefault" departLane="random" />
	<vehicle id="v548" depart="746.49" route="r461" type="CarDefault" departLane="random" />
	<vehicle id="v549" depart="749.5" route="r461" type="CarDefault" departLane="random" />
	<vehicle id="v550" depart="752.51" route="r461" type="CarDefault" departLane="random" />
	<vehicle id="v551" depart="755.52" route="r461" type="CarDefault" departLane="random" />
	<vehicle id="v552" depart="758.53" route="r461" type="CarDefault" departLane="random" />
	<vehicle id="v553" depart="761.54" route="r461" type="CarDefault" departLane="random" />
	<vehicle id="v554" depart="764.55" route="r461" type="CarDefault" departLane="random" />
	<vehicle id="v555" depart="767.56" route="r461" type="CarDefault" departLane="random" />
	<vehicle id="v556" depart="770.57" route="r461" type="CarDefault" departLane="random" />
	<vehicle id="v557" depart="773.58" route="r461" type="CarDefault" departLane="random" />
	<vehicle id="v558" depart="776.59" route="r461" type="CarDefault" departLane="random" />
	<vehicle id="v559" depart="779.6" route="r461" type="CarDefault" departLane="random" />
	<vehicle id="v560" depart="782.61" route="r461" type="CarDefault" departLane="random" />
	<vehicle id="v561" depart="785.62" route="r461" type="CarDefault" departLane="random" />
	<vehicle id="v562" depart="788.63" route="r461" type="CarDefault" departLane="random" />
	<vehicle id="v563" depart="791.64" route="r461" type="CarDefault" departLane="random" />
	<vehicle id="v564" depart="794.65" route="r461" type="CarDefault" departLane="random" />
	<vehicle id="v565" depart="797.66" route="r461" type="CarDefault" departLane="random" />
	<vehicle id="v566" depart="800.67" route="r461" type="CarDefault" departLane="random" />
	<vehicle id="v567" depart="803.68" route="r461" type="CarDefault" departLane="random" />
	<vehicle id="v568" depart="806.69" route="r461" type="CarDefault" departLane="random" />
	<vehicle id="v569" depart="809.7" route="r461" type="CarDefault" departLane="random" />
	<vehicle id="v570" depart="812.71" route="r461" type="CarDefault" departLane="random" />
	<vehicle id="v571" depart="815.72" route="r461" type="CarDefault" departLane="random" />
	<vehicle id="v572" depart="818.73" route="r461" type="CarDefault" departLane="random" />
	<vehicle id="v573" depart="821.74" route="r461" type="CarDefault" departLane="random" />
	<vehicle id="v574" depart="824.75" route="r461" type="CarDefault" departLane="random" />
	<vehicle id="v575" depart="827.76" route="r461" type="CarDefault" departLane="random" />
	<vehicle id="v576" depart="830.77" route="r461" type="CarDefault" departLane="random" />
	<vehicle id="v577" depart="833.78" route="r461" type="CarDefault" departLane="random" />
	<vehicle id="v578" depart="836.79" route="r461" type="CarDefault" departLane="random" />
	<vehicle id="v579" depart="839.8" route="r461" type="CarDefault" departLane="random" />
	<vehicle id="v580" depart="842.81" route="r461" type="CarDefault" departLane="random" />
	<vehicle id="v581" depart="845.82" route="r461" type="CarDefault" departLane="random" />
	<vehicle id="v582" depart="848.83" route="r461" type="CarDefault" departLane="random" />
	<vehicle id="v583" depart="851.84" route="r461" type="CarDefault" departLane="random" />
	<vehicle id="v584" depart="854.85" route="r461" type="CarDefault" departLane="random" />
	<vehicle id="v585" depart="857.86" route="r461" type="CarDefault" departLane="random" />
	<vehicle id="v586" depart="860.87" route="r461" type="CarDefault" departLane="random" />
	<vehicle id="v587" depart="863.88" route="r461" type="CarDefault" departLane="random" />
	<vehicle id="v588" depart="866.89" route="r461" type="CarDefault" departLane="random" />
	<vehicle id="v589" depart="869.9" route="r461" type="CarDefault" departLane="random" />
	<vehicle id="v590" depart="872.91" route="r461" type="CarDefault" departLane="random" />
	<vehicle id="v591" depart="875.92" route="r461" type="CarDefault" departLane="random" />
	<vehicle id="v592" depart="878.93" route="r461" type="CarDefault" departLane="random" />
	<vehicle id="v593" depart="881.94" route="r461" type="CarDefault" departLane="random" />
	<vehicle id="v594" depart="884.95" route="r461" type="CarDefault" departLane="random" />
	<vehicle id="v595" depart="887.96" route="r461" type="CarDefault" departLane="random" />
	<vehicle id="v596" depart="890.97" route="r461" type="CarDefault" departLane="random" />
	<vehicle id="v597" depart="893.98" route="r461" type="CarDefault" departLane="random" />
	<vehicle id="v598" depart="896.99" route="r461" type="CarDefault" departLane="random" />
	<vehicle id="v599" depart="900.0" route="r461" type="CarDefault" departLane="random" />
</routes>