<?xml version='1.0' encoding='utf-8'?>
<routes>
	<vType accel="3.0" decel="6.0" id="CarDefault" length="5.0" minGap="2.5" maxSpeed="50.0" sigma="0.5" />
	<route id="r652" edges="604 605 579 580 306 543 544 350 602 76 75 72 71 74 73 59 68 192 191 190 189 188 69 70 272 347 287 632 365 366 603 353 354 239 447 448 23 58 38" fromJunction="226" toJunction="68" />
	<route id="r653" edges="278 93 92 415 650 623 624 625 356 616 585 586 641 357 622 556 626 591 398 541 542 578 391 34 33 229 220 3 2 224 223 306 543 544 350 602 370 371 372 373 445" fromJunction="246" toJunction="139" />
	<route id="r654" edges="52 183 199 198 197 36 119 118 117 123 122 121 120 101 57 56 55 54 112 247 246" fromJunction="243" toJunction="227" />
	<vehicle id="v7" depart="0" route="r652" type="CarDefault" departLane="random" />
	<vehicle id="v4" depart="1" route="r652" type="CarDefault" departLane="random" />
	<vehicle id="v220" depart="1" route="r653" type="CarDefault" departLane="random" />
	<vehicle id="v221" depart="2" route="r653" type="CarDefault" departLane="random" />
	<vehicle id="v431" depart="4" route="r654" type="CarDefault" departLane="random" />
	<vehicle id="v3" depart="5" route="r652" type="CarDefault" departLane="random" />
	<vehicle id="v219" depart="6" route="r653" type="CarDefault" departLane="random" />
	<vehicle id="v213" depart="8" route="r653" type="CarDefault" departLane="random" />
	<vehicle id="v1" depart="11" route="r652" type="CarDefault" departLane="random" />
	<vehicle id="v8" depart="11" route="r652" type="CarDefault" departLane="random" />
	<vehicle id="v218" depart="11" route="r653" type="CarDefault" departLane="random" />
	<vehicle id="v435" depart="13" route="r654" type="CarDefault" departLane="random" />
	<vehicle id="v429" depart="15" route="r654" type="CarDefault" departLane="random" />
	<vehicle id="v215" depart="16" route="r653" type="CarDefault" departLane="random" />
	<vehicle id="v216" depart="16" route="r653" type="CarDefault" departLane="random" />
	<vehicle id="v430" depart="18" route="r654" type="CarDefault" departLane="random" />
	<vehicle id="v214" depart="19" route="r653" type="CarDefault" departLane="random" />
	<vehicle id="v217" depart="19" route="r653" type="CarDefault" departLane="random" />
	<vehicle id="v6" depart="20" route="r652" type="CarDefault" departLane="random" />
	<vehicle id="v10" depart="21" route="r652" type="CarDefault" departLane="random" />
	<vehicle id="v227" depart="21" route="r653" type="CarDefault" departLane="random" />
	<vehicle id="v228" depart="21" route="r653" type="CarDefault" departLane="random" />
	<vehicle id="v432" depart="21" route="r654" type="CarDefault" departLane="random" />
	<vehicle id="v0" depart="23" route="r652" type="CarDefault" departLane="random" />
	<vehicle id="v223" depart="24" route="r653" type="CarDefault" departLane="random" />
	<vehicle id="v229" depart="24" route="r653" type="CarDefault" departLane="random" />
	<vehicle id="v433" depart="24" route="r654" type="CarDefault" departLane="random" />
	<vehicle id="v9" depart="25" route="r652" type="CarDefault" departLane="random" />
	<vehicle id="v428" depart="25" route="r654" type="CarDefault" departLane="random" />
	<vehicle id="v5" depart="27" route="r652" type="CarDefault" departLane="random" />
	<vehicle id="v436" depart="27" route="r654" type="CarDefault" departLane="random" />
	<vehicle id="v434" depart="28" route="r654" type="CarDefault" departLane="random" />
	<vehicle id="v2" depart="29" route="r652" type="CarDefault" departLane="random" />
	<vehicle id="v437" depart="34" route="r654" type="CarDefault" departLane="random" />
	<vehicle id="v222" depart="36" route="r653" type="CarDefault" departLane="random" />
	<vehicle id="v224" depart="36" route="r653" type="CarDefault" departLane="random" />
	<vehicle id="v225" depart="36" route="r653" type="CarDefault" departLane="random" />
	<vehicle id="v226" depart="36" route="r653" type="CarDefault" departLane="random" />
	<vehicle id="v17" depart="39" route="r652" type="CarDefault" departLane="random" />
	<vehicle id="v230" depart="40" route="r653" type="CarDefault" departLane="random" />
	<vehicle id="v231" depart="40" route="r653" type="CarDefault" departLane="random" />
	<vehicle id="v12" depart="41" route="r652" type="CarDefault" departLane="random" />
	<vehicle id="v233" depart="41" route="r653" type="CarDefault" departLane="random" />
	<vehicle id="v236" depart="43" route="r653" type="CarDefault" departLane="random" />
	<vehicle id="v441" depart="43" route="r654" type="CarDefault" departLane="random" />
	<vehicle id="v438" depart="44" route="r654" type="CarDefault" departLane="random" />
	<vehicle id="v235" depart="45" route="r653" type="CarDefault" departLane="random" />
	<vehicle id="v14" depart="46" route="r652" type="CarDefault" departLane="random" />
	<vehicle id="v439" depart="46" route="r654" type="CarDefault" departLane="random" />
	<vehicle id="v234" depart="51" route="r653" type="CarDefault" departLane="random" />
	<vehicle id="v13" depart="54" route="r652" type="CarDefault" departLane="random" />
	<vehicle id="v15" depart="56" route="r652" type="CarDefault" departLane="random" />
	<vehicle id="v16" depart="56" route="r652" type="CarDefault" departLane="random" />
	<vehicle id="v18" depart="57" route="r652" type="CarDefault" departLane="random" />
	<vehicle id="v11" depart="58" route="r652" type="CarDefault" departLane="random" />
	<vehicle id="v232" depart="58" route="r653" type="CarDefault" departLane="random" />
	<vehicle id="v440" depart="59" route="r654" type="CarDefault" departLane="random" />
	<vehicle id="v453" depart="60" route="r654" type="CarDefault" departLane="random" />
	<vehicle id="v242" depart="61" route="r653" type="CarDefault" departLane="random" />
	<vehicle id="v31" depart="62" route="r652" type="CarDefault" departLane="random" />
	<vehicle id="v452" depart="63" route="r654" type="CarDefault" departLane="random" />
	<vehicle id="v32" depart="64" route="r652" type="CarDefault" departLane="random" />
	<vehicle id="v240" depart="64" route="r653" type="CarDefault" departLane="random" />
	<vehicle id="v444" depart="64" route="r654" type="CarDefault" departLane="random" />
	<vehicle id="v456" depart="64" route="r654" type="CarDefault" departLane="random" />
	<vehicle id="v461" depart="64" route="r654" type="CarDefault" departLane="random" />
	<vehicle id="v239" depart="65" route="r653" type="CarDefault" departLane="random" />
	<vehicle id="v243" depart="65" route="r653" type="CarDefault" departLane="random" />
	<vehicle id="v451" depart="66" route="r654" type="CarDefault" departLane="random" />
	<vehicle id="v459" depart="69" route="r654" type="CarDefault" departLane="random" />
	<vehicle id="v237" depart="70" route="r653" type="CarDefault" departLane="random" />
	<vehicle id="v244" depart="70" route="r653" type="CarDefault" departLane="random" />
	<vehicle id="v27" depart="71" route="r652" type="CarDefault" departLane="random" />
	<vehicle id="v445" depart="71" route="r654" type="CarDefault" departLane="random" />
	<vehicle id="v21" depart="74" route="r652" type="CarDefault" departLane="random" />
	<vehicle id="v24" depart="74" route="r652" type="CarDefault" departLane="random" />
	<vehicle id="v20" depart="75" route="r652" type="CarDefault" departLane="random" />
	<vehicle id="v245" depart="75" route="r653" type="CarDefault" departLane="random" />
	<vehicle id="v246" depart="75" route="r653" type="CarDefault" departLane="random" />
	<vehicle id="v446" depart="75" route="r654" type="CarDefault" departLane="random" />
	<vehicle id="v449" depart="75" route="r654" type="CarDefault" departLane="random" />
	<vehicle id="v238" depart="76" route="r653" type="CarDefault" departLane="random" />
	<vehicle id="v26" depart="78" route="r652" type="CarDefault" departLane="random" />
	<vehicle id="v33" depart="78" route="r652" type="CarDefault" departLane="random" />
	<vehicle id="v29" depart="79" route="r652" type="CarDefault" departLane="random" />
	<vehicle id="v241" depart="79" route="r653" type="CarDefault" departLane="random" />
	<vehicle id="v443" depart="79" route="r654" type="CarDefault" departLane="random" />
	<vehicle id="v247" depart="80" route="r653" type="CarDefault" departLane="random" />
	<vehicle id="v450" depart="80" route="r654" type="CarDefault" departLane="random" />
	<vehicle id="v460" depart="81" route="r654" type="CarDefault" departLane="random" />
	<vehicle id="v28" depart="82" route="r652" type="CarDefault" departLane="random" />
	<vehicle id="v251" depart="82" route="r653" type="CarDefault" departLane="random" />
	<vehicle id="v457" depart="82" route="r654" type="CarDefault" departLane="random" />
	<vehicle id="v253" depart="83" route="r653" type="CarDefault" departLane="random" />
	<vehicle id="v30" depart="84" route="r652" type="CarDefault" departLane="random" />
	<vehicle id="v249" depart="85" route="r653" type="CarDefault" departLane="random" />
	<vehicle id="v447" depart="85" route="r654" type="CarDefault" departLane="random" />
	<vehicle id="v448" depart="85" route="r654" type="CarDefault" departLane="random" />
	<vehicle id="v458" depart="85" route="r654" type="CarDefault" departLane="random" />
	<vehicle id="v19" depart="87" route="r652" type="CarDefault" departLane="random" />
	<vehicle id="v248" depart="88" route="r653" type="CarDefault" departLane="random" />
	<vehicle id="v22" depart="89" route="r652" type="CarDefault" departLane="random" />
	<vehicle id="v23" depart="89" route="r652" type="CarDefault" departLane="random" />
	<vehicle id="v25" depart="89" route="r652" type="CarDefault" departLane="random" />
	<vehicle id="v442" depart="89" route="r654" type="CarDefault" departLane="random" />
	<vehicle id="v454" depart="89" route="r654" type="CarDefault" departLane="random" />
	<vehicle id="v455" depart="89" route="r654" type="CarDefault" departLane="random" />
	<vehicle id="v469" depart="90" route="r654" type="CarDefault" departLane="random" />
	<vehicle id="v463" depart="91" route="r654" type="CarDefault" departLane="random" />
	<vehicle id="v478" depart="91" route="r654" type="CarDefault" departLane="random" />
	<vehicle id="v39" depart="93" route="r652" type="CarDefault" departLane="random" />
	<vehicle id="v462" depart="93" route="r654" type="CarDefault" departLane="random" />
	<vehicle id="v473" depart="93" route="r654" type="CarDefault" departLane="random" />
	<vehicle id="v471" depart="94" route="r654" type="CarDefault" departLane="random" />
	<vehicle id="v250" depart="95" route="r653" type="CarDefault" departLane="random" />
	<vehicle id="v34" depart="96" route="r652" type="CarDefault" departLane="random" />
	<vehicle id="v37" depart="96" route="r652" type="CarDefault" departLane="random" />
	<vehicle id="v36" depart="98" route="r652" type="CarDefault" departLane="random" />
	<vehicle id="v45" depart="98" route="r652" type="CarDefault" departLane="random" />
	<vehicle id="v252" depart="99" route="r653" type="CarDefault" departLane="random" />
	<vehicle id="v465" depart="99" route="r654" type="CarDefault" departLane="random" />
	<vehicle id="v255" depart="102" route="r653" type="CarDefault" departLane="random" />
	<vehicle id="v472" depart="102" route="r654" type="CarDefault" departLane="random" />
	<vehicle id="v42" depart="103" route="r652" type="CarDefault" departLane="random" />
	<vehicle id="v474" depart="105" route="r654" type="CarDefault" departLane="random" />
	<vehicle id="v476" depart="105" route="r654" type="CarDefault" departLane="random" />
	<vehicle id="v258" depart="106" route="r653" type="CarDefault" departLane="random" />
	<vehicle id="v38" depart="107" route="r652" type="CarDefault" departLane="random" />
	<vehicle id="v43" depart="107" route="r652" type="CarDefault" departLane="random" />
	<vehicle id="v260" depart="108" route="r653" type="CarDefault" departLane="random" />
	<vehicle id="v467" depart="108" route="r654" type="CarDefault" departLane="random" />
	<vehicle id="v464" depart="109" route="r654" type="CarDefault" departLane="random" />
	<vehicle id="v35" depart="110" route="r652" type="CarDefault" departLane="random" />
	<vehicle id="v477" depart="112" route="r654" type="CarDefault" departLane="random" />
	<vehicle id="v470" depart="113" route="r654" type="CarDefault" departLane="random" />
	<vehicle id="v475" depart="113" route="r654" type="CarDefault" departLane="random" />
	<vehicle id="v40" depart="114" route="r652" type="CarDefault" departLane="random" />
	<vehicle id="v44" depart="115" route="r652" type="CarDefault" departLane="random" />
	<vehicle id="v466" depart="115" route="r654" type="CarDefault" departLane="random" />
	<vehicle id="v468" depart="115" route="r654" type="CarDefault" departLane="random" />
	<vehicle id="v41" depart="117" route="r652" type="CarDefault" departLane="random" />
	<vehicle id="v254" depart="118" route="r653" type="CarDefault" departLane="random" />
	<vehicle id="v256" depart="118" route="r653" type="CarDefault" departLane="random" />
	<vehicle id="v257" depart="119" route="r653" type="CarDefault" departLane="random" />
	<vehicle id="v259" depart="119" route="r653" type="CarDefault" departLane="random" />
	<vehicle id="v261" depart="120" route="r653" type="CarDefault" departLane="random" />
	<vehicle id="v266" depart="120" route="r653" type="CarDefault" departLane="random" />
	<vehicle id="v488" depart="120" route="r654" type="CarDefault" departLane="random" />
	<vehicle id="v489" depart="120" route="r654" type="CarDefault" departLane="random" />
	<vehicle id="v48" depart="121" route="r652" type="CarDefault" departLane="random" />
	<vehicle id="v486" depart="122" route="r654" type="CarDefault" departLane="random" />
	<vehicle id="v53" depart="126" route="r652" type="CarDefault" departLane="random" />
	<vehicle id="v263" depart="126" route="r653" type="CarDefault" departLane="random" />
	<vehicle id="v262" depart="127" route="r653" type="CarDefault" departLane="random" />
	<vehicle id="v265" depart="127" route="r653" type="CarDefault" departLane="random" />
	<vehicle id="v269" depart="129" route="r653" type="CarDefault" departLane="random" />
	<vehicle id="v267" depart="130" route="r653" type="CarDefault" departLane="random" />
	<vehicle id="v54" depart="131" route="r652" type="CarDefault" departLane="random" />
	<vehicle id="v484" depart="131" route="r654" type="CarDefault" departLane="random" />
	<vehicle id="v51" depart="134" route="r652" type="CarDefault" departLane="random" />
	<vehicle id="v479" depart="136" route="r654" type="CarDefault" departLane="random" />
	<vehicle id="v264" depart="137" route="r653" type="CarDefault" departLane="random" />
	<vehicle id="v268" depart="137" route="r653" type="CarDefault" departLane="random" />
	<vehicle id="v485" depart="137" route="r654" type="CarDefault" departLane="random" />
	<vehicle id="v49" depart="139" route="r652" type="CarDefault" departLane="random" />
	<vehicle id="v482" depart="139" route="r654" type="CarDefault" departLane="random" />
	<vehicle id="v47" depart="140" route="r652" type="CarDefault" departLane="random" />
	<vehicle id="v277" depart="140" route="r653" type="CarDefault" departLane="random" />
	<vehicle id="v276" depart="141" route="r653" type="CarDefault" departLane="random" />
	<vehicle id="v270" depart="142" route="r653" type="CarDefault" departLane="random" />
	<vehicle id="v483" depart="143" route="r654" type="CarDefault" departLane="random" />
	<vehicle id="v46" depart="145" route="r652" type="CarDefault" departLane="random" />
	<vehicle id="v271" depart="146" route="r653" type="CarDefault" departLane="random" />
	<vehicle id="v481" depart="146" route="r654" type="CarDefault" departLane="random" />
	<vehicle id="v50" depart="147" route="r652" type="CarDefault" departLane="random" />
	<vehicle id="v52" depart="147" route="r652" type="CarDefault" departLane="random" />
	<vehicle id="v480" depart="147" route="r654" type="CarDefault" departLane="random" />
	<vehicle id="v487" depart="147" route="r654" type="CarDefault" departLane="random" />
	<vehicle id="v496" depart="150" route="r654" type="CarDefault" departLane="random" />
	<vehicle id="v497" depart="150" route="r654" type="CarDefault" departLane="random" />
	<vehicle id="v65" depart="151" route="r652" type="CarDefault" departLane="random" />
	<vehicle id="v506" depart="151" route="r654" type="CarDefault" departLane="random" />
	<vehicle id="v58" depart="152" route="r652" type="CarDefault" departLane="random" />
	<vehicle id="v495" depart="152" route="r654" type="CarDefault" departLane="random" />
	<vehicle id="v61" depart="153" route="r652" type="CarDefault" departLane="random" />
	<vehicle id="v64" depart="153" route="r652" type="CarDefault" departLane="random" />
	<vehicle id="v493" depart="154" route="r654" type="CarDefault" departLane="random" />
	<vehicle id="v272" depart="155" route="r653" type="CarDefault" departLane="random" />
	<vehicle id="v273" depart="155" route="r653" type="CarDefault" departLane="random" />
	<vehicle id="v278" depart="155" route="r653" type="CarDefault" departLane="random" />
	<vehicle id="v275" depart="156" route="r653" type="CarDefault" departLane="random" />
	<vehicle id="v56" depart="157" route="r652" type="CarDefault" departLane="random" />
	<vehicle id="v63" depart="157" route="r652" type="CarDefault" departLane="random" />
	<vehicle id="v498" depart="157" route="r654" type="CarDefault" departLane="random" />
	<vehicle id="v274" depart="159" route="r653" type="CarDefault" departLane="random" />
	<vehicle id="v499" depart="159" route="r654" type="CarDefault" departLane="random" />
	<vehicle id="v492" depart="160" route="r654" type="CarDefault" departLane="random" />
	<vehicle id="v500" depart="160" route="r654" type="CarDefault" departLane="random" />
	<vehicle id="v494" depart="161" route="r654" type="CarDefault" departLane="random" />
	<vehicle id="v501" depart="161" route="r654" type="CarDefault" departLane="random" />
	<vehicle id="v504" depart="161" route="r654" type="CarDefault" departLane="random" />
	<vehicle id="v284" depart="162" route="r653" type="CarDefault" departLane="random" />
	<vehicle id="v503" depart="162" route="r654" type="CarDefault" departLane="random" />
	<vehicle id="v59" depart="163" route="r652" type="CarDefault" departLane="random" />
	<vehicle id="v505" depart="163" route="r654" type="CarDefault" departLane="random" />
	<vehicle id="v57" depart="164" route="r652" type="CarDefault" departLane="random" />
	<vehicle id="v280" depart="164" route="r653" type="CarDefault" departLane="random" />
	<vehicle id="v281" depart="164" route="r653" type="CarDefault" departLane="random" />
	<vehicle id="v60" depart="166" route="r652" type="CarDefault" departLane="random" />
	<vehicle id="v62" depart="167" route="r652" type="CarDefault" departLane="random" />
	<vehicle id="v509" depart="167" route="r654" type="CarDefault" departLane="random" />
	<vehicle id="v282" depart="168" route="r653" type="CarDefault" departLane="random" />
	<vehicle id="v283" depart="168" route="r653" type="CarDefault" departLane="random" />
	<vehicle id="v491" depart="168" route="r654" type="CarDefault" departLane="random" />
	<vehicle id="v508" depart="168" route="r654" type="CarDefault" departLane="random" />
	<vehicle id="v279" depart="171" route="r653" type="CarDefault" departLane="random" />
	<vehicle id="v286" depart="175" route="r653" type="CarDefault" departLane="random" />
	<vehicle id="v55" depart="178" route="r652" type="CarDefault" departLane="random" />
	<vehicle id="v285" depart="178" route="r653" type="CarDefault" departLane="random" />
	<vehicle id="v490" depart="178" route="r654" type="CarDefault" departLane="random" />
	<vehicle id="v502" depart="178" route="r654" type="CarDefault" departLane="random" />
	<vehicle id="v507" depart="178" route="r654" type="CarDefault" departLane="random" />
	<vehicle id="v290" depart="180" route="r653" type="CarDefault" departLane="random" />
	<vehicle id="v76" depart="181" route="r652" type="CarDefault" departLane="random" />
	<vehicle id="v520" depart="181" route="r654" type="CarDefault" departLane="random" />
	<vehicle id="v288" depart="182" route="r653" type="CarDefault" departLane="random" />
	<vehicle id="v510" depart="182" route="r654" type="CarDefault" departLane="random" />
	<vehicle id="v70" depart="183" route="r652" type="CarDefault" departLane="random" />
	<vehicle id="v79" depart="183" route="r652" type="CarDefault" departLane="random" />
	<vehicle id="v295" depart="183" route="r653" type="CarDefault" departLane="random" />
	<vehicle id="v524" depart="183" route="r654" type="CarDefault" departLane="random" />
	<vehicle id="v67" depart="185" route="r652" type="CarDefault" departLane="random" />
	<vehicle id="v296" depart="185" route="r653" type="CarDefault" departLane="random" />
	<vehicle id="v523" depart="186" route="r654" type="CarDefault" departLane="random" />
	<vehicle id="v294" depart="187" route="r653" type="CarDefault" departLane="random" />
	<vehicle id="v514" depart="187" route="r654" type="CarDefault" departLane="random" />
	<vehicle id="v522" depart="188" route="r654" type="CarDefault" departLane="random" />
	<vehicle id="v69" depart="189" route="r652" type="CarDefault" departLane="random" />
	<vehicle id="v77" depart="189" route="r652" type="CarDefault" departLane="random" />
	<vehicle id="v517" depart="189" route="r654" type="CarDefault" departLane="random" />
	<vehicle id="v292" depart="190" route="r653" type="CarDefault" departLane="random" />
	<vehicle id="v75" depart="191" route="r652" type="CarDefault" departLane="random" />
	<vehicle id="v528" depart="192" route="r654" type="CarDefault" departLane="random" />
	<vehicle id="v287" depart="195" route="r653" type="CarDefault" departLane="random" />
	<vehicle id="v293" depart="196" route="r653" type="CarDefault" departLane="random" />
	<vehicle id="v512" depart="196" route="r654" type="CarDefault" departLane="random" />
	<vehicle id="v73" depart="197" route="r652" type="CarDefault" departLane="random" />
	<vehicle id="v527" depart="197" route="r654" type="CarDefault" departLane="random" />
	<vehicle id="v521" depart="198" route="r654" type="CarDefault" departLane="random" />
	<vehicle id="v289" depart="199" route="r653" type="CarDefault" departLane="random" />
	<vehicle id="v291" depart="199" route="r653" type="CarDefault" departLane="random" />
	<vehicle id="v526" depart="200" route="r654" type="CarDefault" departLane="random" />
	<vehicle id="v68" depart="201" route="r652" type="CarDefault" departLane="random" />
	<vehicle id="v71" depart="201" route="r652" type="CarDefault" departLane="random" />
	<vehicle id="v305" depart="201" route="r653" type="CarDefault" departLane="random" />
	<vehicle id="v299" depart="202" route="r653" type="CarDefault" departLane="random" />
	<vehicle id="v301" depart="202" route="r653" type="CarDefault" departLane="random" />
	<vehicle id="v511" depart="202" route="r654" type="CarDefault" departLane="random" />
	<vehicle id="v74" depart="205" route="r652" type="CarDefault" departLane="random" />
	<vehicle id="v513" depart="205" route="r654" type="CarDefault" departLane="random" />
	<vehicle id="v516" depart="205" route="r654" type="CarDefault" departLane="random" />
	<vehicle id="v518" depart="205" route="r654" type="CarDefault" departLane="random" />
	<vehicle id="v525" depart="205" route="r654" type="CarDefault" departLane="random" />
	<vehicle id="v297" depart="207" route="r653" type="CarDefault" departLane="random" />
	<vehicle id="v72" depart="208" route="r652" type="CarDefault" departLane="random" />
	<vehicle id="v515" depart="208" route="r654" type="CarDefault" departLane="random" />
	<vehicle id="v66" depart="209" route="r652" type="CarDefault" departLane="random" />
	<vehicle id="v78" depart="209" route="r652" type="CarDefault" departLane="random" />
	<vehicle id="v519" depart="209" route="r654" type="CarDefault" departLane="random" />
	<vehicle id="v303" depart="213" route="r653" type="CarDefault" departLane="random" />
	<vehicle id="v532" depart="213" route="r654" type="CarDefault" departLane="random" />
	<vehicle id="v537" depart="213" route="r654" type="CarDefault" departLane="random" />
	<vehicle id="v300" depart="215" route="r653" type="CarDefault" departLane="random" />
	<vehicle id="v83" depart="217" route="r652" type="CarDefault" departLane="random" />
	<vehicle id="v302" depart="217" route="r653" type="CarDefault" departLane="random" />
	<vehicle id="v304" depart="217" route="r653" type="CarDefault" departLane="random" />
	<vehicle id="v298" depart="219" route="r653" type="CarDefault" departLane="random" />
	<vehicle id="v310" depart="220" route="r653" type="CarDefault" departLane="random" />
	<vehicle id="v312" depart="220" route="r653" type="CarDefault" departLane="random" />
	<vehicle id="v529" depart="220" route="r654" type="CarDefault" departLane="random" />
	<vehicle id="v306" depart="222" route="r653" type="CarDefault" departLane="random" />
	<vehicle id="v80" depart="223" route="r652" type="CarDefault" departLane="random" />
	<vehicle id="v84" depart="223" route="r652" type="CarDefault" departLane="random" />
	<vehicle id="v309" depart="223" route="r653" type="CarDefault" departLane="random" />
	<vehicle id="v311" depart="223" route="r653" type="CarDefault" departLane="random" />
	<vehicle id="v82" depart="224" route="r652" type="CarDefault" departLane="random" />
	<vehicle id="v81" depart="225" route="r652" type="CarDefault" departLane="random" />
	<vehicle id="v308" depart="228" route="r653" type="CarDefault" departLane="random" />
	<vehicle id="v534" depart="230" route="r654" type="CarDefault" departLane="random" />
	<vehicle id="v85" depart="232" route="r652" type="CarDefault" departLane="random" />
	<vehicle id="v531" depart="233" route="r654" type="CarDefault" departLane="random" />
	<vehicle id="v533" depart="234" route="r654" type="CarDefault" departLane="random" />
	<vehicle id="v536" depart="234" route="r654" type="CarDefault" departLane="random" />
	<vehicle id="v307" depart="235" route="r653" type="CarDefault" departLane="random" />
	<vehicle id="v86" depart="237" route="r652" type="CarDefault" departLane="random" />
	<vehicle id="v530" depart="238" route="r654" type="CarDefault" departLane="random" />
	<vehicle id="v535" depart="238" route="r654" type="CarDefault" departLane="random" />
	<vehicle id="v320" depart="240" route="r653" type="CarDefault" departLane="random" />
	<vehicle id="v318" depart="242" route="r653" type="CarDefault" departLane="random" />
	<vehicle id="v542" depart="242" route="r654" type="CarDefault" departLane="random" />
	<vehicle id="v544" depart="242" route="r654" type="CarDefault" departLane="random" />
	<vehicle id="v546" depart="243" route="r654" type="CarDefault" departLane="random" />
	<vehicle id="v539" depart="244" route="r654" type="CarDefault" departLane="random" />
	<vehicle id="v317" depart="246" route="r653" type="CarDefault" departLane="random" />
	<vehicle id="v89" depart="247" route="r652" type="CarDefault" departLane="random" />
	<vehicle id="v316" depart="247" route="r653" type="CarDefault" departLane="random" />
	<vehicle id="v540" depart="248" route="r654" type="CarDefault" departLane="random" />
	<vehicle id="v538" depart="249" route="r654" type="CarDefault" departLane="random" />
	<vehicle id="v92" depart="252" route="r652" type="CarDefault" departLane="random" />
	<vehicle id="v313" depart="253" route="r653" type="CarDefault" departLane="random" />
	<vehicle id="v94" depart="254" route="r652" type="CarDefault" departLane="random" />
	<vehicle id="v91" depart="255" route="r652" type="CarDefault" departLane="random" />
	<vehicle id="v314" depart="255" route="r653" type="CarDefault" departLane="random" />
	<vehicle id="v545" depart="255" route="r654" type="CarDefault" departLane="random" />
	<vehicle id="v319" depart="256" route="r653" type="CarDefault" departLane="random" />
	<vehicle id="v543" depart="256" route="r654" type="CarDefault" departLane="random" />
	<vehicle id="v93" depart="257" route="r652" type="CarDefault" departLane="random" />
	<vehicle id="v547" depart="257" route="r654" type="CarDefault" departLane="random" />
	<vehicle id="v315" depart="259" route="r653" type="CarDefault" departLane="random" />
	<vehicle id="v90" depart="260" route="r652" type="CarDefault" departLane="random" />
	<vehicle id="v95" depart="260" route="r652" type="CarDefault" departLane="random" />
	<vehicle id="v96" depart="263" route="r652" type="CarDefault" departLane="random" />
	<vehicle id="v541" depart="263" route="r654" type="CarDefault" departLane="random" />
	<vehicle id="v87" depart="264" route="r652" type="CarDefault" departLane="random" />
	<vehicle id="v97" depart="265" route="r652" type="CarDefault" departLane="random" />
	<vehicle id="v325" depart="265" route="r653" type="CarDefault" departLane="random" />
	<vehicle id="v326" depart="265" route="r653" type="CarDefault" departLane="random" />
	<vehicle id="v88" depart="269" route="r652" type="CarDefault" departLane="random" />
	<vehicle id="v107" depart="270" route="r652" type="CarDefault" departLane="random" />
	<vehicle id="v112" depart="270" route="r652" type="CarDefault" departLane="random" />
	<vehicle id="v322" depart="271" route="r653" type="CarDefault" departLane="random" />
	<vehicle id="v327" depart="272" route="r653" type="CarDefault" departLane="random" />
	<vehicle id="v560" depart="272" route="r654" type="CarDefault" departLane="random" />
	<vehicle id="v324" depart="273" route="r653" type="CarDefault" departLane="random" />
	<vehicle id="v553" depart="274" route="r654" type="CarDefault" departLane="random" />
	<vehicle id="v321" depart="275" route="r653" type="CarDefault" departLane="random" />
	<vehicle id="v109" depart="276" route="r652" type="CarDefault" departLane="random" />
	<vehicle id="v549" depart="276" route="r654" type="CarDefault" departLane="random" />
	<vehicle id="v103" depart="278" route="r652" type="CarDefault" departLane="random" />