<?xml version='1.0' encoding='utf-8'?>
<routes>
	<vType accel="3.0" decel="6.0" id="CarDefault" length="5.0" minGap="2.5" maxSpeed="50.0" sigma="0.5" />
	<route id="r923" edges="132 133 43 153 144 145 146 147 135 136 137 138 139 140 141 142" fromJunction="77" toJunction="66" />
	<vehicle id="v725" depart="0.0" route="r923" type="CarDefault" departLane="random" />
	<vehicle id="v726" depart="5.03" route="r923" type="CarDefault" departLane="random" />
	<vehicle id="v727" depart="10.05" route="r923" type="CarDefault" departLane="random" />
	<vehicle id="v728" depart="15.08" route="r923" type="CarDefault" departLane="random" />
	<vehicle id="v729" depart="20.1" route="r923" type="CarDefault" departLane="random" />
	<vehicle id="v730" depart="25.13" route="r923" type="CarDefault" departLane="random" />
	<vehicle id="v731" depart="30.15" route="r923" type="CarDefault" departLane="random" />
	<vehicle id="v732" depart="35.18" route="r923" type="CarDefault" departLane="random" />
	<vehicle id="v733" depart="40.2" route="r923" type="CarDefault" departLane="random" />
	<vehicle id="v734" depart="45.23" route="r923" type="CarDefault" departLane="random" />
	<vehicle id="v735" depart="50.25" route="r923" type="CarDefault" departLane="random" />
	<vehicle id="v736" depart="55.28" route="r923" type="CarDefault" departLane="random" />
	<vehicle id="v737" depart="60.3" route="r923" type="CarDefault" departLane="random" />
	<vehicle id="v738" depart="65.33" route="r923" type="CarDefault" departLane="random" />
	<vehicle id="v739" depart="70.35" route="r923" type="CarDefault" departLane="random" />
	<vehicle id="v740" depart="75.38" route="r923" type="CarDefault" departLane="random" />
	<vehicle id="v741" depart="80.4" route="r923" type="CarDefault" departLane="random" />
	<vehicle id="v742" depart="85.43" route="r923" type="CarDefault" departLane="random" />
	<vehicle id="v743" depart="90.45" route="r923" type="CarDefault" departLane="random" />
	<vehicle id="v744" depart="95.48" route="r923" type="CarDefault" departLane="random" />
	<vehicle id="v745" depart="100.5" route="r923" type="CarDefault" departLane="random" />
	<vehicle id="v746" depart="105.53" route="r923" type="CarDefault" departLane="random" />
	<vehicle id="v747" depart="110.55" route="r923" type="CarDefault" departLane="random" />
	<vehicle id="v748" depart="115.58" route="r923" type="CarDefault" departLane="random" />
	<vehicle id="v749" depart="120.6" route="r923" type="CarDefault" departLane="random" />
	<vehicle id="v750" depart="125.63" route="r923" type="CarDefault" departLane="random" />
	<vehicle id="v751" depart="130.65" route="r923" type="CarDefault" departLane="random" />
	<vehicle id="v752" depart="135.68" route="r923" type="CarDefault" departLane="random" />
	<vehicle id="v753" depart="140.7" route="r923" type="CarDefault" departLane="random" />
	<vehicle id="v754" depart="145.73" route="r923" type="CarDefault" departLane="random" />
	<vehicle id="v755" depart="150.75" route="r923" type="CarDefault" departLane="random" />
	<vehicle id="v756" depart="155.78" route="r923" type="CarDefault" departLane="random" />
	<vehicle id="v757" depart="160.8" route="r923" type="CarDefault" departLane="random" />
	<vehicle id="v758" depart="165.83" route="r923" type="CarDefault" departLane="random" />
	<vehicle id="v759" depart="170.85" route="r923" type="CarDefault" departLane="random" />
	<vehicle id="v760" depart="175.88" route="r923" type="CarDefault" departLane="random" />
	<vehicle id="v761" depart="180.9" route="r923" type="CarDefault" departLane="random" />
	<vehicle id="v762" depart="185.93" route="r923" type="CarDefault" departLane="random" />
	<vehicle id="v763" depart="190.95" route="r923" type="CarDefault" departLane="random" />
	<vehicle id="v764" depart="195.98" route="r923" type="CarDefault" departLane="random" />
	<vehicle id="v765" depart="201.01" route="r923" type="CarDefault" departLane="random" />
	<vehicle id="v766" depart="206.03" route="r923" type="CarDefault" departLane="random" />
	<vehicle id="v767" depart="211.06" route="r923" type="CarDefault" departLane="random" />
	<vehicle id="v768" depart="216.08" route="r923" type="CarDefault" departLane="random" />
	<vehicle id="v769" depart="221.11" route="r923" type="CarDefault" departLane="random" />
	<vehicle id="v770" depart="226.13" route="r923" type="CarDefault" departLane="random" />
	<vehicle id="v771" depart="231.16" route="r923" type="CarDefault" departLane="random" />
	<vehicle id="v772" depart="236.18" route="r923" type="CarDefault" departLane="random" />
	<vehicle id="v773" depart="241.21" route="r923" type="CarDefault" departLane="random" />
	<vehicle id="v774" depart="246.23" route="r923" type="CarDefault" departLane="random" />
	<vehicle id="v775" depart="251.26" route="r923" type="CarDefault" departLane="random" />
	<vehicle id="v776" depart="256.28" route="r923" type="CarDefault" departLane="random" />
	<vehicle id="v777" depart="261.31" route="r923" type="CarDefault" departLane="random" />
	<vehicle id="v778" depart="266.33" route="r923" type="CarDefault" departLane="random" />
	<vehicle id="v779" depart="271.36" route="r923" type="CarDefault" departLane="random" />
	<vehicle id="v780" depart="276.38" route="r923" type="CarDefault" departLane="random" />
	<vehicle id="v781" depart="281.41" route="r923" type="CarDefault" departLane="random" />
	<vehicle id="v782" depart="286.43" route="r923" type="CarDefault" departLane="random" />
	<vehicle id="v783" depart="291.46" route="r923" type="CarDefault" departLane="random" />
	<vehicle id="v784" depart="296.48" route="r923" type="CarDefault" departLane="random" />
	<vehicle id="v785" depart="301.51" route="r923" type="CarDefault" departLane="random" />
	<vehicle id="v786" depart="306.53" route="r923" type="CarDefault" departLane="random" />
	<vehicle id="v787" depart="311.56" route="r923" type="CarDefault" departLane="random" />
	<vehicle id="v788" depart="316.58" route="r923" type="CarDefault" departLane="random" />
	<vehicle id="v789" depart="321.61" route="r923" type="CarDefault" departLane="random" />
	<vehicle id="v790" depart="326.63" route="r923" type="CarDefault" departLane="random" />
	<vehicle id="v791" depart="331.66" route="r923" type="CarDefault" departLane="random" />
	<vehicle id="v792" depart="336.68" route="r923" type="CarDefault" departLane="random" />
	<vehicle id="v793" depart="341.71" route="r923" type="CarDefault" departLane="random" />
	<vehicle id="v794" depart="346.73" route="r923" type="CarDefault" departLane="random" />
	<vehicle id="v795" depart="351.76" route="r923" type="CarDefault" departLane="random" />
	<vehicle id="v796" depart="356.78" route="r923" type="CarDefault" departLane="random" />
	<vehicle id="v797" depart="361.81" route="r923" type="CarDefault" departLane="random" />
	<vehicle id="v798" depart="366.83" route="r923" type="CarDefault" departLane="random" />
	<vehicle id="v799" depart="371.86" route="r923" type="CarDefault" departLane="random" />
	<vehicle id="v800" depart="376.88" route="r923" type="CarDefault" departLane="random" />
	<vehicle id="v801" depart="381.91" route="r923" type="CarDefault" departLane="random" />
	<vehicle id="v802" depart="386.93" route="r923" type="CarDefault" departLane="random" />
	<vehicle id="v803" depart="391.96" route="r923" type="CarDefault" departLane="random" />
	<vehicle id="v804" depart="396.98" route="r923" type="CarDefault" departLane="random" />
	<vehicle id="v805" depart="402.01" route="r923" type="CarDefault" departLane="random" />
	<vehicle id="v806" depart="407.04" route="r923" type="CarDefault" departLane="random" />
	<vehicle id="v807" depart="412.06" route="r923" type="CarDefault" departLane="random" />
	<vehicle id="v808" depart="417.09" route="r923" type="CarDefault" departLane="random" />
	<vehicle id="v809" depart="422.11" route="r923" type="CarDefault" departLane="random" />
	<vehicle id="v810" depart="427.14" route="r923" type="CarDefault" departLane="random" />
	<vehicle id="v811" depart="432.16" route="r923" type="CarDefault" departLane="random" />
	<vehicle id="v812" depart="437.19" route="r923" type="CarDefault" departLane="random" />
	<vehicle id="v813" depart="442.21" route="r923" type="CarDefault" departLane="random" />
	<vehicle id="v814" depart="447.24" route="r923" type="CarDefault" departLane="random" />
	<vehicle id="v815" depart="452.26" route="r923" type="CarDefault" departLane="random" />
	<vehicle id="v816" depart="457.29" route="r923" type="CarDefault" departLane="random" />
	<vehicle id="v817" depart="462.31" route="r923" type="CarDefault" departLane="random" />
	<vehicle id="v818" depart="467.34" route="r923" type="CarDefault" departLane="random" />
	<vehicle id="v819" depart="472.36" route="r923" type="CarDefault" departLane="random" />
	<vehicle id="v820" depart="477.39" route="r923" type="CarDefault" departLane="random" />
	<vehicle id="v821" depart="482.41" route="r923" type="CarDefault" departLane="random" />
	<vehicle id="v822" depart="487.44" route="r923" type="CarDefault" departLane="random" />
	<vehicle id="v823" depart="492.46" route="r923" type="CarDefault" departLane="random" />
	<vehicle id="v824" depart="497.49" route="r923" type="CarDefault" departLane="random" />
	<vehicle id="v825" depart="502.51" route="r923" type="CarDefault" departLane="random" />
	<vehicle id="v826" depart="507.54" route="r923" type="CarDefault" departLane="random" />
	<vehicle id="v827" depart="512.56" route="r923" type="CarDefault" departLane="random" />
	<vehicle id="v828" depart="517.59" route="r923" type="CarDefault" departLane="random" />
	<vehicle id="v829" depart="522.61" route="r923" type="CarDefault" departLane="random" />
	<vehicle id="v830" depart="527.64" route="r923" type="CarDefault" departLane="random" />
	<vehicle id="v831" depart="532.66" route="r923" type="CarDefault" departLane="random" />
	<vehicle id="v832" depart="537.69" route="r923" type="CarDefault" departLane="random" />
	<vehicle id="v833" depart="542.71" route="r923" type="CarDefault" departLane="random" />
	<vehicle id="v834" depart="547.74" route="r923" type="CarDefault" departLane="random" />
	<vehicle id="v835" depart="552.76" route="r923" type="CarDefault" departLane="random" />
	<vehicle id="v836" depart="557.79" route="r923" type="CarDefault" departLane="random" />
	<vehicle id="v837" depart="562.81" route="r923" type="CarDefault" departLane="random" />
	<vehicle id="v838" depart="567.84" route="r923" type="CarDefault" departLane="random" />
	<vehicle id="v839" depart="572.86" route="r923" type="CarDefault" departLane="random" />
	<vehicle id="v840" depart="577.89" route="r923" type="CarDefault" departLane="random" />
	<vehicle id="v841" depart="582.91" route="r923" type="CarDefault" departLane="random" />
	<vehicle id="v842" depart="587.94" route="r923" type="CarDefault" departLane="random" />
	<vehicle id="v843" depart="592.96" route="r923" type="CarDefault" departLane="random" />
	<vehicle id="v844" depart="597.99" route="r923" type="CarDefault" departLane="random" />
	<vehicle id="v845" depart="603.02" route="r923" type="CarDefault" departLane="random" />
	<vehicle id="v846" depart="608.04" route="r923" type="CarDefault" departLane="random" />
	<vehicle id="v847" depart="613.07" route="r923" type="CarDefault" departLane="random" />
	<vehicle id="v848" depart="618.09" route="r923" type="CarDefault" departLane="random" />
	<vehicle id="v849" depart="623.12" route="r923" type="CarDefault" departLane="random" />
	<vehicle id="v850" depart="628.14" route="r923" type="CarDefault" departLane="random" />
	<vehicle id="v851" depart="633.17" route="r923" type="CarDefault" departLane="random" />
	<vehicle id="v852" depart="638.19" route="r923" type="CarDefault" departLane="random" />
	<vehicle id="v853" depart="643.22" route="r923" type="CarDefault" departLane="random" />
	<vehicle id="v854" depart="648.24" route="r923" type="CarDefault" departLane="random" />
	<vehicle id="v855" depart="653.27" route="r923" type="CarDefault" departLane="random" />
	<vehicle id="v856" depart="658.29" route="r923" type="CarDefault" departLane="random" />
	<vehicle id="v857" depart="663.32" route="r923" type="CarDefault" departLane="random" />
	<vehicle id="v858" depart="668.34" route="r923" type="CarDefault" departLane="random" />
	<vehicle id="v859" depart="673.37" route="r923" type="CarDefault" departLane="random" />
	<vehicle id="v860" depart="678.39" route="r923" type="CarDefault" departLane="random" />
	<vehicle id="v861" depart="683.42" route="r923" type="CarDefault" departLane="random" />
	<vehicle id="v862" depart="688.44" route="r923" type="CarDefault" departLane="random" />
	<vehicle id="v863" depart="693.47" route="r923" type="CarDefault" departLane="random" />
	<vehicle id="v864" depart="698.49" route="r923" type="CarDefault" departLane="random" />
	<vehicle id="v865" depart="703.52" route="r923" type="CarDefault" departLane="random" />
	<vehicle id="v866" depart="708.54" route="r923" type="CarDefault" departLane="random" />
	<vehicle id="v867" depart="713.57" route="r923" type="CarDefault" departLane="random" />
	<vehicle id="v868" depart="718.59" route="r923" type="CarDefault" departLane="random" />
	<vehicle id="v869" depart="723.62" route="r923" type="CarDefault" departLane="random" />
	<vehicle id="v870" depart="728.64" route="r923" type="CarDefault" departLane="random" />
	<vehicle id="v871" depart="733.67" route="r923" type="CarDefault" departLane="random" />
	<vehicle id="v872" depart="738.69" route="r923" type="CarDefault" departLane="random" />
	<vehicle id="v873" depart="743.72" route="r923" type="CarDefault" departLane="random" />
	<vehicle id="v874" depart="748.74" route="r923" type="CarDefault" departLane="random" />
	<vehicle id="v875" depart="753.77" route="r923" type="CarDefault" departLane="random" />
	<vehicle id="v876" depart="758.79" route="r923" type="CarDefault" departLane="random" />
	<vehicle id="v877" depart="763.82" route="r923" type="CarDefault" departLane="random" />
	<vehicle id="v878" depart="768.84" route="r923" type="CarDefault" departLane="random" />
	<vehicle id="v879" depart="773.87" route="r923" type="CarDefault" departLane="random" />
	<vehicle id="v880" depart="778.89" route="r923" type="CarDefault" departLane="random" />
	<vehicle id="v881" depart="783.92" route="r923" type="CarDefault" departLane="random" />
	<vehicle id="v882" depart="788.94" route="r923" type="CarDefault" departLane="random" />
	<vehicle id="v883" depart="793.97" route="r923" type="CarDefault" departLane="random" />
	<vehicle id="v884" depart="798.99" route="r923" type="CarDefault" departLane="random" />
	<vehicle id="v885" depart="804.02" route="r923" type="CarDefault" departLane="random" />
	<vehicle id="v886" depart="809.05" route="r923" type="CarDefault" departLane="random" />
	<vehicle id="v887" depart="814.07" route="r923" type="CarDefault" departLane="random" />
	<vehicle id="v888" depart="819.1" route="r923" type="CarDefault" departLane="random" />
	<vehicle id="v889" depart="824.12" route="r923" type="CarDefault" departLane="random" />
	<vehicle id="v890" depart="829.15" route="r923" type="CarDefault" departLane="random" />
	<vehicle id="v891" depart="834.17" route="r923" type="CarDefault" departLane="random" />
	<vehicle id="v892" depart="839.2" route="r923" type="CarDefault" departLane="random" />
	<vehicle id="v893" depart="844.22" route="r923" type="CarDefault" departLane="random" />
	<vehicle id="v894" depart="849.25" route="r923" type="CarDefault" departLane="random" />
	<vehicle id="v895" depart="854.27" route="r923" type="CarDefault" departLane="random" />
	<vehicle id="v896" depart="859.3" route="r923" type="CarDefault" departLane="random" />
	<vehicle id="v897" depart="864.32" route="r923" type="CarDefault" departLane="random" />
	<vehicle id="v898" depart="869.35" route="r923" type="CarDefault" departLane="random" />
	<vehicle id="v899" depart="874.37" route="r923" type="CarDefault" departLane="random" />
	<vehicle id="v900" depart="879.4" route="r923" type="CarDefault" departLane="random" />
	<vehicle id="v901" depart="884.42" route="r923" type="CarDefault" departLane="random" />
	<vehicle id="v902" depart="889.45" route="r923" type="CarDefault" departLane="random" />
	<vehicle id="v903" depart="894.47" route="r923" type="CarDefault" departLane="random" />
	<vehicle id="v904" depart="899.5" route="r923" type="CarDefault" departLane="random" />
	<vehicle id="v905" depart="904.52" route="r923" type="CarDefault" departLane="random" />
	<vehicle id="v906" depart="909.55" route="r923" type="CarDefault" departLane="random" />
	<vehicle id="v907" depart="914.57" route="r923" type="CarDefault" departLane="random" />
	<vehicle id="v908" depart="919.6" route="r923" type="CarDefault" departLane="random" />
	<vehicle id="v909" depart="924.62" route="r923" type="CarDefault" departLane="random" />
	<vehicle id="v910" depart="929.65" route="r923" type="CarDefault" departLane="random" />
	<vehicle id="v911" depart="934.67" route="r923" type="CarDefault" departLane="random" />
	<vehicle id="v912" depart="939.7" route="r923" type="CarDefault" departLane="random" />
	<vehicle id="v913" depart="944.72" route="r923" type="CarDefault" departLane="random" />
	<vehicle id="v914" depart="949.75" route="r923" type="CarDefault" departLane="random" />
	<vehicle id="v915" depart="954.77" route="r923" type="CarDefault" departLane="random" />
	<vehicle id="v916" depart="959.8" route="r923" type="CarDefault" departLane="random" />
	<vehicle id="v917" depart="964.82" route="r923" type="CarDefault" departLane="random" />
	<vehicle id="v918" depart="969.85" route="r923" type="CarDefault" departLane="random" />
	<vehicle id="v919" depart="974.87" route="r923" type="CarDefault" departLane="random" />
	<vehicle id="v920" depart="979.9" route="r923" type="CarDefault" departLane="random" />
	<vehicle id="v921" depart="984.92" route="r923" type="CarDefault" departLane="random" />
	<vehicle id="v922" depart="989.95" route="r923" type="CarDefault" departLane="random" />
	<vehicle id="v923" depart="994.97" route="r923" type="CarDefault" departLane="random" />
	<vehicle id="v924" depart="1000.0" route="r923" type="CarDefault" departLane="random" />
</routes>