<?xml version='1.0' encoding='utf-8'?>
<routes>
	<vType accel="3.0" decel="6.0" id="CarDefault" length="5.0" minGap="2.5" maxSpeed="50.0" sigma="0.5" />
	<route id="r1061" edges="488 975 976 743 744 745 741 742 430 210 12 11 341 627 628 967 968 957 958 511 512 513 890 891 766 1018 1019 1020 1021 1022 898 961 1017 960 706" fromJunction="357" toJunction="248" />
	<route id="r1062" edges="288 287 739 415 233 886 774 502 892 893 503 13 229 972 479 480 922 712 487 711 254 386 390 389 388 822" fromJunction="241" toJunction="316" />
	<route id="r1063" edges="226 225 224 432 317 316 132 131 130 129 305 315 637 638 639 640 767 550 551 552 553 554 884 885 346" fromJunction="87" toJunction="315" />
	<route id="r1064" edges="954 658 659 655 656 657 317 115 1029 444 443 506 507 508 509 510 892 893 503 740 1009 505 962 963 401" fromJunction="77" toJunction="358" />
	<vehicle id="v0" depart="0.0" route="r1061" type="CarDefault" departLane="random" />
	<vehicle id="v135" depart="0.0" route="r1062" type="CarDefault" departLane="random" />
	<vehicle id="v305" depart="0.0" route="r1063" type="CarDefault" departLane="random" />
	<vehicle id="v415" depart="0.0" route="r1064" type="CarDefault" departLane="random" />
	<vehicle id="v136" depart="2.84" route="r1062" type="CarDefault" departLane="random" />
	<vehicle id="v416" depart="3.45" route="r1064" type="CarDefault" departLane="random" />
	<vehicle id="v1" depart="3.58" route="r1061" type="CarDefault" departLane="random" />
	<vehicle id="v306" depart="4.4" route="r1063" type="CarDefault" departLane="random" />
	<vehicle id="v137" depart="5.68" route="r1062" type="CarDefault" departLane="random" />
	<vehicle id="v417" depart="6.91" route="r1064" type="CarDefault" departLane="random" />
	<vehicle id="v2" depart="7.16" route="r1061" type="CarDefault" departLane="random" />
	<vehicle id="v138" depart="8.52" route="r1062" type="CarDefault" departLane="random" />
	<vehicle id="v307" depart="8.81" route="r1063" type="CarDefault" departLane="random" />
	<vehicle id="v418" depart="10.36" route="r1064" type="CarDefault" departLane="random" />
	<vehicle id="v3" depart="10.75" route="r1061" type="CarDefault" departLane="random" />
	<vehicle id="v139" depart="11.36" route="r1062" type="CarDefault" departLane="random" />
	<vehicle id="v308" depart="13.21" route="r1063" type="CarDefault" departLane="random" />
	<vehicle id="v419" depart="13.81" route="r1064" type="CarDefault" departLane="random" />
	<vehicle id="v140" depart="14.2" route="r1062" type="CarDefault" departLane="random" />
	<vehicle id="v4" depart="14.33" route="r1061" type="CarDefault" departLane="random" />
	<vehicle id="v141" depart="17.04" route="r1062" type="CarDefault" departLane="random" />
	<vehicle id="v420" depart="17.27" route="r1064" type="CarDefault" departLane="random" />
	<vehicle id="v309" depart="17.61" route="r1063" type="CarDefault" departLane="random" />
	<vehicle id="v5" depart="17.91" route="r1061" type="CarDefault" departLane="random" />
	<vehicle id="v142" depart="19.88" route="r1062" type="CarDefault" departLane="random" />
	<vehicle id="v421" depart="20.72" route="r1064" type="CarDefault" departLane="random" />
	<vehicle id="v6" depart="21.49" route="r1061" type="CarDefault" departLane="random" />
	<vehicle id="v310" depart="22.02" route="r1063" type="CarDefault" departLane="random" />
	<vehicle id="v143" depart="22.72" route="r1062" type="CarDefault" departLane="random" />
	<vehicle id="v422" depart="24.17" route="r1064" type="CarDefault" departLane="random" />
	<vehicle id="v7" depart="25.07" route="r1061" type="CarDefault" departLane="random" />
	<vehicle id="v144" depart="25.56" route="r1062" type="CarDefault" departLane="random" />
	<vehicle id="v311" depart="26.42" route="r1063" type="CarDefault" departLane="random" />
	<vehicle id="v423" depart="27.63" route="r1064" type="CarDefault" departLane="random" />
	<vehicle id="v145" depart="28.4" route="r1062" type="CarDefault" departLane="random" />
	<vehicle id="v8" depart="28.66" route="r1061" type="CarDefault" departLane="random" />
	<vehicle id="v312" depart="30.83" route="r1063" type="CarDefault" departLane="random" />
	<vehicle id="v424" depart="31.08" route="r1064" type="CarDefault" departLane="random" />
	<vehicle id="v146" depart="31.24" route="r1062" type="CarDefault" departLane="random" />
	<vehicle id="v9" depart="32.24" route="r1061" type="CarDefault" departLane="random" />
	<vehicle id="v147" depart="34.08" route="r1062" type="CarDefault" departLane="random" />
	<vehicle id="v425" depart="34.53" route="r1064" type="CarDefault" departLane="random" />
	<vehicle id="v313" depart="35.23" route="r1063" type="CarDefault" departLane="random" />
	<vehicle id="v10" depart="35.82" route="r1061" type="CarDefault" departLane="random" />
	<vehicle id="v148" depart="36.92" route="r1062" type="CarDefault" departLane="random" />
	<vehicle id="v426" depart="37.99" route="r1064" type="CarDefault" departLane="random" />
	<vehicle id="v11" depart="39.4" route="r1061" type="CarDefault" departLane="random" />
	<vehicle id="v314" depart="39.63" route="r1063" type="CarDefault" departLane="random" />
	<vehicle id="v149" depart="39.76" route="r1062" type="CarDefault" departLane="random" />
	<vehicle id="v427" depart="41.44" route="r1064" type="CarDefault" departLane="random" />
	<vehicle id="v150" depart="42.6" route="r1062" type="CarDefault" departLane="random" />
	<vehicle id="v12" depart="42.99" route="r1061" type="CarDefault" departLane="random" />
	<vehicle id="v315" depart="44.04" route="r1063" type="CarDefault" departLane="random" />
	<vehicle id="v428" depart="44.89" route="r1064" type="CarDefault" departLane="random" />
	<vehicle id="v151" depart="45.44" route="r1062" type="CarDefault" departLane="random" />
	<vehicle id="v13" depart="46.57" route="r1061" type="CarDefault" departLane="random" />
	<vehicle id="v152" depart="48.28" route="r1062" type="CarDefault" departLane="random" />
	<vehicle id="v429" depart="48.35" route="r1064" type="CarDefault" departLane="random" />
	<vehicle id="v316" depart="48.44" route="r1063" type="CarDefault" departLane="random" />
	<vehicle id="v14" depart="50.15" route="r1061" type="CarDefault" departLane="random" />
	<vehicle id="v153" depart="51.12" route="r1062" type="CarDefault" departLane="random" />
	<vehicle id="v430" depart="51.8" route="r1064" type="CarDefault" departLane="random" />
	<vehicle id="v317" depart="52.84" route="r1063" type="CarDefault" departLane="random" />
	<vehicle id="v15" depart="53.73" route="r1061" type="CarDefault" departLane="random" />
	<vehicle id="v154" depart="53.96" route="r1062" type="CarDefault" departLane="random" />
	<vehicle id="v431" depart="55.25" route="r1064" type="CarDefault" departLane="random" />
	<vehicle id="v155" depart="56.8" route="r1062" type="CarDefault" departLane="random" />
	<vehicle id="v318" depart="57.25" route="r1063" type="CarDefault" departLane="random" />
	<vehicle id="v16" depart="57.31" route="r1061" type="CarDefault" departLane="random" />
	<vehicle id="v432" depart="58.71" route="r1064" type="CarDefault" departLane="random" />
	<vehicle id="v156" depart="59.64" route="r1062" type="CarDefault" departLane="random" />
	<vehicle id="v17" depart="60.9" route="r1061" type="CarDefault" departLane="random" />
	<vehicle id="v319" depart="61.65" route="r1063" type="CarDefault" departLane="random" />
	<vehicle id="v433" depart="62.16" route="r1064" type="CarDefault" departLane="random" />
	<vehicle id="v157" depart="62.49" route="r1062" type="CarDefault" departLane="random" />
	<vehicle id="v18" depart="64.48" route="r1061" type="CarDefault" departLane="random" />
	<vehicle id="v158" depart="65.33" route="r1062" type="CarDefault" departLane="random" />
	<vehicle id="v434" depart="65.61" route="r1064" type="CarDefault" departLane="random" />
	<vehicle id="v320" depart="66.06" route="r1063" type="CarDefault" departLane="random" />
	<vehicle id="v19" depart="68.06" route="r1061" type="CarDefault" departLane="random" />
	<vehicle id="v159" depart="68.17" route="r1062" type="CarDefault" departLane="random" />
	<vehicle id="v435" depart="69.06" route="r1064" type="CarDefault" departLane="random" />
	<vehicle id="v321" depart="70.46" route="r1063" type="CarDefault" departLane="random" />
	<vehicle id="v160" depart="71.01" route="r1062" type="CarDefault" departLane="random" />
	<vehicle id="v20" depart="71.64" route="r1061" type="CarDefault" departLane="random" />
	<vehicle id="v436" depart="72.52" route="r1064" type="CarDefault" departLane="random" />
	<vehicle id="v161" depart="73.85" route="r1062" type="CarDefault" departLane="random" />
	<vehicle id="v322" depart="74.86" route="r1063" type="CarDefault" departLane="random" />
	<vehicle id="v21" depart="75.22" route="r1061" type="CarDefault" departLane="random" />
	<vehicle id="v437" depart="75.97" route="r1064" type="CarDefault" departLane="random" />
	<vehicle id="v162" depart="76.69" route="r1062" type="CarDefault" departLane="random" />
	<vehicle id="v22" depart="78.81" route="r1061" type="CarDefault" departLane="random" />
	<vehicle id="v323" depart="79.27" route="r1063" type="CarDefault" departLane="random" />
	<vehicle id="v438" depart="79.42" route="r1064" type="CarDefault" departLane="random" />
	<vehicle id="v163" depart="79.53" route="r1062" type="CarDefault" departLane="random" />
	<vehicle id="v164" depart="82.37" route="r1062" type="CarDefault" departLane="random" />
	<vehicle id="v23" depart="82.39" route="r1061" type="CarDefault" departLane="random" />
	<vehicle id="v439" depart="82.88" route="r1064" type="CarDefault" departLane="random" />
	<vehicle id="v324" depart="83.67" route="r1063" type="CarDefault" departLane="random" />
	<vehicle id="v165" depart="85.21" route="r1062" type="CarDefault" departLane="random" />
	<vehicle id="v24" depart="85.97" route="r1061" type="CarDefault" departLane="random" />
	<vehicle id="v440" depart="86.33" route="r1064" type="CarDefault" departLane="random" />
	<vehicle id="v166" depart="88.05" route="r1062" type="CarDefault" departLane="random" />
	<vehicle id="v325" depart="88.07" route="r1063" type="CarDefault" departLane="random" />
	<vehicle id="v25" depart="89.55" route="r1061" type="CarDefault" departLane="random" />
	<vehicle id="v441" depart="89.78" route="r1064" type="CarDefault" departLane="random" />
	<vehicle id="v167" depart="90.89" route="r1062" type="CarDefault" departLane="random" />
	<vehicle id="v326" depart="92.48" route="r1063" type="CarDefault" departLane="random" />
	<vehicle id="v26" depart="93.13" route="r1061" type="CarDefault" departLane="random" />
	<vehicle id="v442" depart="93.24" route="r1064" type="CarDefault" departLane="random" />
	<vehicle id="v168" depart="93.73" route="r1062" type="CarDefault" departLane="random" />
	<vehicle id="v169" depart="96.57" route="r1062" type="CarDefault" departLane="random" />
	<vehicle id="v443" depart="96.69" route="r1064" type="CarDefault" departLane="random" />
	<vehicle id="v27" depart="96.72" route="r1061" type="CarDefault" departLane="random" />
	<vehicle id="v327" depart="96.88" route="r1063" type="CarDefault" departLane="random" />
	<vehicle id="v170" depart="99.41" route="r1062" type="CarDefault" departLane="random" />
	<vehicle id="v444" depart="100.14" route="r1064" type="CarDefault" departLane="random" />
	<vehicle id="v28" depart="100.3" route="r1061" type="CarDefault" departLane="random" />
	<vehicle id="v328" depart="101.28" route="r1063" type="CarDefault" departLane="random" />
	<vehicle id="v171" depart="102.25" route="r1062" type="CarDefault" departLane="random" />
	<vehicle id="v445" depart="103.6" route="r1064" type="CarDefault" departLane="random" />
	<vehicle id="v29" depart="103.88" route="r1061" type="CarDefault" departLane="random" />
	<vehicle id="v172" depart="105.09" route="r1062" type="CarDefault" departLane="random" />
	<vehicle id="v329" depart="105.69" route="r1063" type="CarDefault" departLane="random" />
	<vehicle id="v446" depart="107.05" route="r1064" type="CarDefault" departLane="random" />
	<vehicle id="v30" depart="107.46" route="r1061" type="CarDefault" departLane="random" />
	<vehicle id="v173" depart="107.93" route="r1062" type="CarDefault" departLane="random" />
	<vehicle id="v330" depart="110.09" route="r1063" type="CarDefault" departLane="random" />
	<vehicle id="v447" depart="110.5" route="r1064" type="CarDefault" departLane="random" />
	<vehicle id="v174" depart="110.77" route="r1062" type="CarDefault" departLane="random" />
	<vehicle id="v31" depart="111.04" route="r1061" type="CarDefault" departLane="random" />
	<vehicle id="v175" depart="113.61" route="r1062" type="CarDefault" departLane="random" />
	<vehicle id="v448" depart="113.96" route="r1064" type="CarDefault" departLane="random" />
	<vehicle id="v331" depart="114.5" route="r1063" type="CarDefault" departLane="random" />
	<vehicle id="v32" depart="114.63" route="r1061" type="CarDefault" departLane="random" />
	<vehicle id="v176" depart="116.45" route="r1062" type="CarDefault" departLane="random" />
	<vehicle id="v449" depart="117.41" route="r1064" type="CarDefault" departLane="random" />
	<vehicle id="v33" depart="118.21" route="r1061" type="CarDefault" departLane="random" />
	<vehicle id="v332" depart="118.9" route="r1063" type="CarDefault" departLane="random" />
	<vehicle id="v177" depart="119.29" route="r1062" type="CarDefault" departLane="random" />
	<vehicle id="v450" depart="120.86" route="r1064" type="CarDefault" departLane="random" />
	<vehicle id="v34" depart="121.79" route="r1061" type="CarDefault" departLane="random" />
	<vehicle id="v178" depart="122.13" route="r1062" type="CarDefault" departLane="random" />
	<vehicle id="v333" depart="123.3" route="r1063" type="CarDefault" departLane="random" />
	<vehicle id="v451" depart="124.32" route="r1064" type="CarDefault" departLane="random" />
	<vehicle id="v179" depart="124.97" route="r1062" type="CarDefault" departLane="random" />
	<vehicle id="v35" depart="125.37" route="r1061" type="CarDefault" departLane="random" />
	<vehicle id="v334" depart="127.71" route="r1063" type="CarDefault" departLane="random" />
	<vehicle id="v452" depart="127.77" route="r1064" type="CarDefault" departLane="random" />
	<vehicle id="v180" depart="127.81" route="r1062" type="CarDefault" departLane="random" />
	<vehicle id="v36" depart="128.96" route="r1061" type="CarDefault" departLane="random" />
	<vehicle id="v181" depart="130.65" route="r1062" type="CarDefault" departLane="random" />
	<vehicle id="v453" depart="131.22" route="r1064" type="CarDefault" departLane="random" />
	<vehicle id="v335" depart="132.11" route="r1063" type="CarDefault" departLane="random" />
	<vehicle id="v37" depart="132.54" route="r1061" type="CarDefault" departLane="random" />
	<vehicle id="v182" depart="133.49" route="r1062" type="CarDefault" departLane="random" />
	<vehicle id="v454" depart="134.68" route="r1064" type="CarDefault" departLane="random" />
	<vehicle id="v38" depart="136.12" route="r1061" type="CarDefault" departLane="random" />
	<vehicle id="v183" depart="136.33" route="r1062" type="CarDefault" departLane="random" />
	<vehicle id="v336" depart="136.51" route="r1063" type="CarDefault" departLane="random" />
	<vehicle id="v455" depart="138.13" route="r1064" type="CarDefault" departLane="random" />
	<vehicle id="v184" depart="139.17" route="r1062" type="CarDefault" departLane="random" />
	<vehicle id="v39" depart="139.7" route="r1061" type="CarDefault" departLane="random" />
	<vehicle id="v337" depart="140.92" route="r1063" type="CarDefault" departLane="random" />
	<vehicle id="v456" depart="141.58" route="r1064" type="CarDefault" departLane="random" />
	<vehicle id="v185" depart="142.01" route="r1062" type="CarDefault" departLane="random" />
	<vehicle id="v40" depart="143.28" route="r1061" type="CarDefault" departLane="random" />
	<vehicle id="v186" depart="144.85" route="r1062" type="CarDefault" departLane="random" />
	<vehicle id="v457" depart="145.04" route="r1064" type="CarDefault" departLane="random" />
	<vehicle id="v338" depart="145.32" route="r1063" type="CarDefault" departLane="random" />
	<vehicle id="v41" depart="146.87" route="r1061" type="CarDefault" departLane="random" />
	<vehicle id="v187" depart="147.69" route="r1062" type="CarDefault" departLane="random" />
	<vehicle id="v458" depart="148.49" route="r1064" type="CarDefault" departLane="random" />
	<vehicle id="v339" depart="149.72" route="r1063" type="CarDefault" departLane="random" />
	<vehicle id="v42" depart="150.45" route="r1061" type="CarDefault" departLane="random" />
	<vehicle id="v188" depart="150.53" route="r1062" type="CarDefault" departLane="random" />
	<vehicle id="v459" depart="151.94" route="r1064" type="CarDefault" departLane="random" />
	<vehicle id="v189" depart="153.37" route="r1062" type="CarDefault" departLane="random" />
	<vehicle id="v43" depart="154.03" route="r1061" type="CarDefault" departLane="random" />
	<vehicle id="v340" depart="154.13" route="r1063" type="CarDefault" departLane="random" />
	<vehicle id="v460" depart="155.4" route="r1064" type="CarDefault" departLane="random" />
	<vehicle id="v190" depart="156.21" route="r1062" type="CarDefault" departLane="random" />
	<vehicle id="v44" depart="157.61" route="r1061" type="CarDefault" departLane="random" />
	<vehicle id="v341" depart="158.53" route="r1063" type="CarDefault" departLane="random" />
	<vehicle id="v461" depart="158.85" route="r1064" type="CarDefault" departLane="random" />
	<vehicle id="v191" depart="159.05" route="r1062" type="CarDefault" departLane="random" />
	<vehicle id="v45" depart="161.19" route="r1061" type="CarDefault" departLane="random" />
	<vehicle id="v192" depart="161.89" route="r1062" type="CarDefault" departLane="random" />
	<vehicle id="v462" depart="162.3" route="r1064" type="CarDefault" departLane="random" />
	<vehicle id="v342" depart="162.94" route="r1063" type="CarDefault" departLane="random" />
	<vehicle id="v193" depart="164.73" route="r1062" type="CarDefault" departLane="random" />
	<vehicle id="v46" depart="164.78" route="r1061" type="CarDefault" departLane="random" />
	<vehicle id="v463" depart="165.76" route="r1064" type="CarDefault" departLane="random" />
	<vehicle id="v343" depart="167.34" route="r1063" type="CarDefault" departLane="random" />
	<vehicle id="v194" depart="167.57" route="r1062" type="CarDefault" departLane="random" />
	<vehicle id="v47" depart="168.36" route="r1061" type="CarDefault" departLane="random" />
	<vehicle id="v464" depart="169.21" route="r1064" type="CarDefault" departLane="random" />
	<vehicle id="v195" depart="170.41" route="r1062" type="CarDefault" departLane="random" />
	<vehicle id="v344" depart="171.74" route="r1063" type="CarDefault" departLane="random" />
	<vehicle id="v48" depart="171.94" route="r1061" type="CarDefault" departLane="random" />
	<vehicle id="v465" depart="172.66" route="r1064" type="CarDefault" departLane="random" />
	<vehicle id="v196" depart="173.25" route="r1062" type="CarDefault" departLane="random" />
	<vehicle id="v49" depart="175.52" route="r1061" type="CarDefault" departLane="random" />
	<vehicle id="v197" depart="176.09" route="r1062" type="CarDefault" departLane="random" />
	<vehicle id="v466" depart="176.12" route="r1064" type="CarDefault" departLane="random" />
	<vehicle id="v345" depart="176.15" route="r1063" type="CarDefault" departLane="random" />
	<vehicle id="v198" depart="178.93" route="r1062" type="CarDefault" departLane="random" />
	<vehicle id="v50" depart="179.1" route="r1061" type="CarDefault" departLane="random" />
	<vehicle id="v467" depart="179.57" route="r1064" type="CarDefault" departLane="random" />
	<vehicle id="v346" depart="180.55" route="r1063" type="CarDefault" departLane="random" />
	<vehicle id="v199" depart="181.78" route="r1062" type="CarDefault" departLane="random" />
	<vehicle id="v51" depart="182.69" route="r1061" type="CarDefault" departLane="random" />
	<vehicle id="v468" depart="183.02" route="r1064" type="CarDefault" departLane="random" />
	<vehicle id="v200" depart="184.62" route="r1062" type="CarDefault" departLane="random" />
	<vehicle id="v347" depart="184.95" route="r1063" type="CarDefault" departLane="random" />
	<vehicle id="v52" depart="186.27" route="r1061" type="CarDefault" departLane="random" />
	<vehicle id="v469" depart="186.47" route="r1064" type="CarDefault" departLane="random" />
	<vehicle id="v201" depart="187.46" route="r1062" type="CarDefault" departLane="random" />
	<vehicle id="v348" depart="189.36" route="r1063" type="CarDefault" departLane="random" />
	<vehicle id="v53" depart="189.85" route="r1061" type="CarDefault" departLane="random" />
	<vehicle id="v470" depart="189.93" route="r1064" type="CarDefault" departLane="random" />
	<vehicle id="v202" depart="190.3" route="r1062" type="CarDefault" departLane="random" />
	<vehicle id="v203" depart="193.14" route="r1062" type="CarDefault" departLane="random" />
	<vehicle id="v471" depart="193.38" route="r1064" type="CarDefault" departLane="random" />
	<vehicle id="v54" depart="193.43" route="r1061" type="CarDefault" departLane="random" />
	<vehicle id="v349" depart="193.76" route="r1063" type="CarDefault" departLane="random" />
	<vehicle id="v204" depart="195.98" route="r1062" type="CarDefault" departLane="random" />
	<vehicle id="v472" depart="196.83" route="r1064" type="CarDefault" departLane="random" />
	<vehicle id="v55" depart="197.01" route="r1061" type="CarDefault" departLane="random" />
	<vehicle id="v350" depart="198.17" route="r1063" type="CarDefault" departLane="random" />
	<vehicle id="v205" depart="198.82" route="r1062" type="CarDefault" departLane="random" />
	<vehicle id="v473" depart="200.29" route="r1064" type="CarDefault" departLane="random" />
	<vehicle id="v56" depart="200.6" route="r1061" type="CarDefault" departLane="random" />
	<vehicle id="v206" depart="201.66" route="r1062" type="CarDefault" departLane="random" />
	<vehicle id="v351" depart="202.57" route="r1063" type="CarDefault" departLane="random" />
	<vehicle id="v474" depart="203.74" route="r1064" type="CarDefault" departLane="random" />
	<vehicle id="v57" depart="204.18" route="r1061" type="CarDefault" departLane="random" />
	<vehicle id="v207" depart="204.5" route="r1062" type="CarDefault" departLane="random" />
	<vehicle id="v352" depart="206.97" route="r1063" type="CarDefault" departLane="random" />
	<vehicle id="v475" depart="207.19" route="r1064" type="CarDefault" departLane="random" />
	<vehicle id="v208" depart="207.34" route="r1062" type="CarDefault" departLane="random" />
	<vehicle id="v58" depart="207.76" route="r1061" type="CarDefault" departLane="random" />
	<vehicle id="v209" depart="210.18" route="r1062" type="CarDefault" departLane="random" />
	<vehicle id="v476" depart="210.65" route="r1064" type="CarDefault" departLane="random" />
	<vehicle id="v59" depart="211.34" route="r1061" type="CarDefault" departLane="random" />
	<vehicle id="v353" depart="211.38" route="r1063" type="CarDefault" departLane="random" />
	<vehicle id="v210" depart="213.02" route="r1062" type="CarDefault" departLane="random" />
	<vehicle id="v477" depart="214.1" route="r1064" type="CarDefault" departLane="random" />
	<vehicle id="v60" depart="214.93" route="r1061" type="CarDefault" departLane="random" />
	<vehicle id="v354" depart="215.78" route="r1063" type="CarDefault" departLane="random" />
	<vehicle id="v211" depart="215.86" route="r1062" type="CarDefault" departLane="random" />
	<vehicle id="v478" depart="217.55" route="r1064" type="CarDefault" departLane="random" />
	<vehicle id="v61" depart="218.51" route="r1061" type="CarDefault" departLane="random" />
	<vehicle id="v212" depart="218.7" route="r1062" type="CarDefault" departLane="random" />
	<vehicle id="v355" depart="220.18" route="r1063" type="CarDefault" departLane="random" />
	<vehicle id="v479" depart="221.01" route="r1064" type="CarDefault" departLane="random" />
	<vehicle id="v213" depart="221.54" route="r1062" type="CarDefault" departLane="random" />
	<vehicle id="v62" depart="222.09" route="r1061" type="CarDefault" departLane="random" />
	<vehicle id="v214" depart="224.38" route="r1062" type="CarDefault" departLane="random" />
	<vehicle id="v480" depart="224.46" route="r1064" type="CarDefault" departLane="random" />
	<vehicle id="v356" depart="224.59" route="r1063" type="CarDefault" departLane="random" />
	<vehicle id="v63" depart="225.67" route="r1061" type="CarDefault" departLane="random" />
	<vehicle id="v215" depart="227.22" route="r1062" type="CarDefault" departLane="random" />
	<vehicle id="v481" depart="227.91" route="r1064" type="CarDefault" departLane="random" />
	<vehicle id="v357" depart="228.99" route="r1063" type="CarDefault" departLane="random" />
	<vehicle id="v64" depart="229.25" route="r1061" type="CarDefault" departLane="random" />
	<vehicle id="v216" depart="230.06" route="r1062" type="CarDefault" departLane="random" />
	<vehicle id="v482" depart="231.37" route="r1064" type="CarDefault" departLane="random" />
	<vehicle id="v65" depart="232.84" route="r1061" type="CarDefault" departLane="random" />
	<vehicle id="v217" depart="232.9" route="r1062" type="CarDefault" departLane="random" />
	<vehicle id="v358" depart="233.39" route="r1063" type="CarDefault" departLane="random" />
	<vehicle id="v483" depart="234.82" route="r1064" type="CarDefault" departLane="random" />
	<vehicle id="v218" depart="235.74" route="r1062" type="CarDefault" departLane="random" />
	<vehicle id="v66" depart="236.42" route="r1061" type="CarDefault" departLane="random" />
	<vehicle id="v359" depart="237.8" route="r1063" type="CarDefault" departLane="random" />
	<vehicle id="v484" depart="238.27" route="r1064" type="CarDefault" departLane="random" />
	<vehicle id="v219" depart="238.58" route="r1062" type="CarDefault" departLane="random" />
	<vehicle id="v67" depart="240.0" route="r1061" type="CarDefault" departLane="random" />
	<vehicle id="v220" depart="241.42" route="r1062" type="CarDefault" departLane="random" />
	<vehicle id="v485" depart="241.73" route="r1064" type="CarDefault" departLane="random" />
	<vehicle id="v360" depart="242.2" route="r1063" type="CarDefault" departLane="random" />
	<vehicle id="v68" depart="243.58" route="r1061" type="CarDefault" departLane="random" />
	<vehicle id="v221" depart="244.26" route="r1062" type="CarDefault" departLane="random" />
	<vehicle id="v486" depart="245.18" route="r1064" type="CarDefault" departLane="random" />
	<vehicle id="v361" depart="246.61" route="r1063" type="CarDefault" departLane="random" />
	<vehicle id="v222" depart="247.1" route="r1062" type="CarDefault" departLane="random" />
	<vehicle id="v69" depart="247.16" route="r1061" type="CarDefault" departLane="random" />
	<vehicle id="v487" depart="248.63" route="r1064" type="CarDefault" departLane="random" />
	<vehicle id="v223" depart="249.94" route="r1062" type="CarDefault" departLane="random" />
	<vehicle id="v70" depart="250.75" route="r1061" type="CarDefault" departLane="random" />
	<vehicle id="v362" depart="251.01" route="r1063" type="CarDefault" departLane="random" />
	<vehicle id="v488" depart="252.09" route="r1064" type="CarDefault" departLane="random" />
	<vehicle id="v224" depart="252.78" route="r1062" type="CarDefault" departLane="random" />
	<vehicle id="v71" depart="254.33" route="r1061" type="CarDefault" departLane="random" />
	<vehicle id="v363" depart="255.41" route="r1063" type="CarDefault" departLane="random" />
	<vehicle id="v489" depart="255.54" route="r1064" type="CarDefault" departLane="random" />
	<vehicle id="v225" depart="255.62" route="r1062" type="CarDefault" departLane="random" />
	<vehicle id="v72" depart="257.91" route="r1061" type="CarDefault" departLane="random" />
	<vehicle id="v226" depart="258.46" route="r1062" type="CarDefault" departLane="random" />
	<vehicle id="v490" depart="258.99" route="r1064" type="CarDefault" departLane="random" />
	<vehicle id="v364" depart="259.82" route="r1063" type="CarDefault" departLane="random" />
	<vehicle id="v227" depart="261.3" route="r1062" type="CarDefault" departLane="random" />
	<vehicle id="v73" depart="261.49" route="r1061" type="CarDefault" departLane="random" />
	<vehicle id="v491" depart="262.45" route="r1064" type="CarDefault" departLane="random" />
	<vehicle id="v228" depart="264.14" route="r1062" type="CarDefault" departLane="random" />
	<vehicle id="v365" depart="264.22" route="r1063" type="CarDefault" departLane="random" />
	<vehicle id="v74" depart="265.07" route="r1061" type="CarDefault" departLane="random" />
	<vehicle id="v492" depart="265.9" route="r1064" type="CarDefault" departLane="random" />
	<vehicle id="v229" depart="266.98" route="r1062" type="CarDefault" departLane="random" />
	<vehicle id="v366" depart="268.62" route="r1063" type="CarDefault" departLane="random" />
	<vehicle id="v75" depart="268.66" route="r1061" type="CarDefault" departLane="random" />
	<vehicle id="v493" depart="269.35" route="r1064" type="CarDefault" departLane="random" />
	<vehicle id="v230" depart="269.82" route="r1062" type="CarDefault" departLane="random" />
	<vehicle id="v76" depart="272.24" route="r1061" type="CarDefault" departLane="random" />
	<vehicle id="v231" depart="272.66" route="r1062" type="CarDefault" departLane="random" />
	<vehicle id="v494" depart="272.81" route="r1064" type="CarDefault" departLane="random" />
	<vehicle id="v367" depart="273.03" route="r1063" type="CarDefault" departLane="random" />
	<vehicle id="v232" depart="275.5" route="r1062" type="CarDefault" departLane="random" />
	<vehicle id="v77" depart="275.82" route="r1061" type="CarDefault" departLane="random" />
	<vehicle id="v495" depart="276.26" route="r1064" type="CarDefault" departLane="random" />
	<vehicle id="v368" depart="277.43" route="r1063" type="CarDefault" departLane="random" />
	<vehicle id="v233" depart="278.34" route="r1062" type="CarDefault" departLane="random" />