<?xml version="1.0" ?>
<routes>
  
    
  <vType accel="3.0" decel="6.0" id="CarDefault" length="5.0" minGap="2.5" maxSpeed="50.0" sigma="0.5"/>
  

  <route id="r230" edges="154 41 47 56 55 165" fromJunction="3" toJunction="10"/>
  <route id="r231" edges="132 133 43 153 144 145 47 56 170 74" fromJunction="77" toJunction="0"/>
  <vehicle id="v0" depart="0" route="r230" type="CarDefault" departLane="random"/>
  <vehicle id="v1" depart="0" route="r230" type="CarDefault" departLane="random"/>
  <vehicle id="v2" depart="0" route="r230" type="CarDefault" departLane="random"/>
  <vehicle id="v3" depart="0" route="r230" type="CarDefault" departLane="random"/>
  <vehicle id="v4" depart="0" route="r230" type="CarDefault" departLane="random"/>
  <vehicle id="v5" depart="0" route="r230" type="CarDefault" departLane="random"/>
  <vehicle id="v6" depart="0" route="r230" type="CarDefault" departLane="random"/>
  <vehicle id="v7" depart="0" route="r230" type="CarDefault" departLane="random"/>
  <vehicle id="v8" depart="0" route="r230" type="CarDefault" departLane="random"/>
  <vehicle id="v9" depart="0" route="r230" type="CarDefault" departLane="random"/>
  <vehicle id="v10" depart="0" route="r230" type="CarDefault" departLane="random"/>
  <vehicle id="v11" depart="0" route="r230" type="CarDefault" departLane="random"/>
  <vehicle id="v12" depart="0" route="r230" type="CarDefault" departLane="random"/>
  <vehicle id="v13" depart="0" route="r230" type="CarDefault" departLane="random"/>
  <vehicle id="v14" depart="0" route="r230" type="CarDefault" departLane="random"/>
  <vehicle id="v116" depart="0" route="r231" type="CarDefault" departLane="random"/>
  <vehicle id="v111" depart="2" route="r231" type="CarDefault" departLane="random"/>
  <vehicle id="v115" depart="2" route="r231" type="CarDefault" departLane="random"/>
  <vehicle id="v112" depart="4" route="r231" type="CarDefault" departLane="random"/>
  <vehicle id="v117" depart="4" route="r231" type="CarDefault" departLane="random"/>
  <vehicle id="v119" depart="6" route="r231" type="CarDefault" departLane="random"/>
  <vehicle id="v126" depart="6" route="r231" type="CarDefault" departLane="random"/>
  <vehicle id="v120" depart="8" route="r231" type="CarDefault" departLane="random"/>
  <vehicle id="v123" depart="9" route="r231" type="CarDefault" departLane="random"/>
  <vehicle id="v124" depart="12" route="r231" type="CarDefault" departLane="random"/>
  <vehicle id="v114" depart="13" route="r231" type="CarDefault" departLane="random"/>
  <vehicle id="v118" depart="13" route="r231" type="CarDefault" departLane="random"/>
  <vehicle id="v113" depart="14" route="r231" type="CarDefault" departLane="random"/>
  <vehicle id="v121" depart="14" route="r231" type="CarDefault" departLane="random"/>
  <vehicle id="v122" depart="14" route="r231" type="CarDefault" departLane="random"/>
  <vehicle id="v127" depart="16" route="r231" type="CarDefault" departLane="random"/>
  <vehicle id="v125" depart="18" route="r231" type="CarDefault" departLane="random"/>
  <vehicle id="v25" depart="20" route="r230" type="CarDefault" departLane="random"/>
  <vehicle id="v21" depart="21" route="r230" type="CarDefault" departLane="random"/>
  <vehicle id="v24" depart="21" route="r230" type="CarDefault" departLane="random"/>
  <vehicle id="v139" depart="21" route="r231" type="CarDefault" departLane="random"/>
  <vehicle id="v20" depart="22" route="r230" type="CarDefault" departLane="random"/>
  <vehicle id="v18" depart="23" route="r230" type="CarDefault" departLane="random"/>
  <vehicle id="v129" depart="23" route="r231" type="CarDefault" departLane="random"/>
  <vehicle id="v135" depart="23" route="r231" type="CarDefault" departLane="random"/>
  <vehicle id="v130" depart="24" route="r231" type="CarDefault" departLane="random"/>
  <vehicle id="v23" depart="25" route="r230" type="CarDefault" departLane="random"/>
  <vehicle id="v142" depart="25" route="r231" type="CarDefault" departLane="random"/>
  <vehicle id="v131" depart="26" route="r231" type="CarDefault" departLane="random"/>
  <vehicle id="v137" depart="26" route="r231" type="CarDefault" departLane="random"/>
  <vehicle id="v19" depart="27" route="r230" type="CarDefault" departLane="random"/>
  <vehicle id="v29" depart="29" route="r230" type="CarDefault" departLane="random"/>
  <vehicle id="v140" depart="29" route="r231" type="CarDefault" departLane="random"/>
  <vehicle id="v16" depart="30" route="r230" type="CarDefault" departLane="random"/>
  <vehicle id="v17" depart="30" route="r230" type="CarDefault" departLane="random"/>
  <vehicle id="v134" depart="30" route="r231" type="CarDefault" departLane="random"/>
  <vehicle id="v22" depart="31" route="r230" type="CarDefault" departLane="random"/>
  <vehicle id="v26" depart="31" route="r230" type="CarDefault" departLane="random"/>
  <vehicle id="v27" depart="31" route="r230" type="CarDefault" departLane="random"/>
  <vehicle id="v132" depart="32" route="r231" type="CarDefault" departLane="random"/>
  <vehicle id="v136" depart="32" route="r231" type="CarDefault" departLane="random"/>
  <vehicle id="v141" depart="32" route="r231" type="CarDefault" departLane="random"/>
  <vehicle id="v133" depart="34" route="r231" type="CarDefault" departLane="random"/>
  <vehicle id="v30" depart="35" route="r230" type="CarDefault" departLane="random"/>
  <vehicle id="v28" depart="36" route="r230" type="CarDefault" departLane="random"/>
  <vehicle id="v15" depart="38" route="r230" type="CarDefault" departLane="random"/>
  <vehicle id="v138" depart="38" route="r231" type="CarDefault" departLane="random"/>
  <vehicle id="v128" depart="39" route="r231" type="CarDefault" departLane="random"/>
  <vehicle id="v148" depart="40" route="r231" type="CarDefault" departLane="random"/>
  <vehicle id="v149" depart="40" route="r231" type="CarDefault" departLane="random"/>
  <vehicle id="v159" depart="40" route="r231" type="CarDefault" departLane="random"/>
  <vehicle id="v36" depart="42" route="r230" type="CarDefault" departLane="random"/>
  <vehicle id="v153" depart="42" route="r231" type="CarDefault" departLane="random"/>
  <vehicle id="v43" depart="43" route="r230" type="CarDefault" departLane="random"/>
  <vehicle id="v37" depart="44" route="r230" type="CarDefault" departLane="random"/>
  <vehicle id="v158" depart="44" route="r231" type="CarDefault" departLane="random"/>
  <vehicle id="v155" depart="45" route="r231" type="CarDefault" departLane="random"/>
  <vehicle id="v39" depart="46" route="r230" type="CarDefault" departLane="random"/>
  <vehicle id="v41" depart="46" route="r230" type="CarDefault" departLane="random"/>
  <vehicle id="v147" depart="46" route="r231" type="CarDefault" departLane="random"/>
  <vehicle id="v154" depart="46" route="r231" type="CarDefault" departLane="random"/>
  <vehicle id="v156" depart="47" route="r231" type="CarDefault" departLane="random"/>
  <vehicle id="v40" depart="48" route="r230" type="CarDefault" departLane="random"/>
  <vehicle id="v152" depart="48" route="r231" type="CarDefault" departLane="random"/>
  <vehicle id="v157" depart="48" route="r231" type="CarDefault" departLane="random"/>
  <vehicle id="v161" depart="49" route="r231" type="CarDefault" departLane="random"/>
  <vehicle id="v146" depart="50" route="r231" type="CarDefault" departLane="random"/>
  <vehicle id="v34" depart="51" route="r230" type="CarDefault" departLane="random"/>
  <vehicle id="v143" depart="51" route="r231" type="CarDefault" departLane="random"/>
  <vehicle id="v144" depart="51" route="r231" type="CarDefault" departLane="random"/>
  <vehicle id="v162" depart="51" route="r231" type="CarDefault" departLane="random"/>
  <vehicle id="v151" depart="52" route="r231" type="CarDefault" departLane="random"/>
  <vehicle id="v31" depart="54" route="r230" type="CarDefault" departLane="random"/>
  <vehicle id="v32" depart="54" route="r230" type="CarDefault" departLane="random"/>
  <vehicle id="v42" depart="57" route="r230" type="CarDefault" departLane="random"/>
  <vehicle id="v33" depart="58" route="r230" type="CarDefault" departLane="random"/>
  <vehicle id="v38" depart="58" route="r230" type="CarDefault" departLane="random"/>
  <vehicle id="v160" depart="58" route="r231" type="CarDefault" departLane="random"/>
  <vehicle id="v35" depart="59" route="r230" type="CarDefault" departLane="random"/>
  <vehicle id="v145" depart="59" route="r231" type="CarDefault" departLane="random"/>
  <vehicle id="v150" depart="59" route="r231" type="CarDefault" departLane="random"/>
  <vehicle id="v47" depart="61" route="r230" type="CarDefault" departLane="random"/>
  <vehicle id="v61" depart="61" route="r230" type="CarDefault" departLane="random"/>
  <vehicle id="v171" depart="61" route="r231" type="CarDefault" departLane="random"/>
  <vehicle id="v54" depart="62" route="r230" type="CarDefault" departLane="random"/>
  <vehicle id="v172" depart="62" route="r231" type="CarDefault" departLane="random"/>
  <vehicle id="v57" depart="63" route="r230" type="CarDefault" departLane="random"/>
  <vehicle id="v60" depart="63" route="r230" type="CarDefault" departLane="random"/>
  <vehicle id="v174" depart="64" route="r231" type="CarDefault" departLane="random"/>
  <vehicle id="v62" depart="65" route="r230" type="CarDefault" departLane="random"/>
  <vehicle id="v50" depart="66" route="r230" type="CarDefault" departLane="random"/>
  <vehicle id="v170" depart="66" route="r231" type="CarDefault" departLane="random"/>
  <vehicle id="v52" depart="67" route="r230" type="CarDefault" departLane="random"/>
  <vehicle id="v59" depart="67" route="r230" type="CarDefault" departLane="random"/>
  <vehicle id="v46" depart="68" route="r230" type="CarDefault" departLane="random"/>
  <vehicle id="v164" depart="68" route="r231" type="CarDefault" departLane="random"/>
  <vehicle id="v63" depart="69" route="r230" type="CarDefault" departLane="random"/>
  <vehicle id="v51" depart="71" route="r230" type="CarDefault" departLane="random"/>
  <vehicle id="v169" depart="71" route="r231" type="CarDefault" departLane="random"/>
  <vehicle id="v44" depart="73" route="r230" type="CarDefault" departLane="random"/>
  <vehicle id="v55" depart="73" route="r230" type="CarDefault" departLane="random"/>
  <vehicle id="v49" depart="74" route="r230" type="CarDefault" departLane="random"/>
  <vehicle id="v53" depart="74" route="r230" type="CarDefault" departLane="random"/>
  <vehicle id="v163" depart="74" route="r231" type="CarDefault" departLane="random"/>
  <vehicle id="v56" depart="76" route="r230" type="CarDefault" departLane="random"/>
  <vehicle id="v166" depart="76" route="r231" type="CarDefault" departLane="random"/>
  <vehicle id="v167" depart="76" route="r231" type="CarDefault" departLane="random"/>
  <vehicle id="v173" depart="76" route="r231" type="CarDefault" departLane="random"/>
  <vehicle id="v45" depart="77" route="r230" type="CarDefault" departLane="random"/>
  <vehicle id="v58" depart="77" route="r230" type="CarDefault" departLane="random"/>
  <vehicle id="v48" depart="79" route="r230" type="CarDefault" departLane="random"/>
  <vehicle id="v165" depart="79" route="r231" type="CarDefault" departLane="random"/>
  <vehicle id="v168" depart="79" route="r231" type="CarDefault" departLane="random"/>
  <vehicle id="v181" depart="80" route="r231" type="CarDefault" departLane="random"/>
  <vehicle id="v182" depart="80" route="r231" type="CarDefault" departLane="random"/>
  <vehicle id="v67" depart="81" route="r230" type="CarDefault" departLane="random"/>
  <vehicle id="v178" depart="81" route="r231" type="CarDefault" departLane="random"/>
  <vehicle id="v179" depart="81" route="r231" type="CarDefault" departLane="random"/>
  <vehicle id="v184" depart="81" route="r231" type="CarDefault" departLane="random"/>
  <vehicle id="v64" depart="83" route="r230" type="CarDefault" departLane="random"/>
  <vehicle id="v69" depart="83" route="r230" type="CarDefault" departLane="random"/>
  <vehicle id="v180" depart="84" route="r231" type="CarDefault" departLane="random"/>
  <vehicle id="v73" depart="87" route="r230" type="CarDefault" departLane="random"/>
  <vehicle id="v75" depart="87" route="r230" type="CarDefault" departLane="random"/>
  <vehicle id="v68" depart="89" route="r230" type="CarDefault" departLane="random"/>
  <vehicle id="v66" depart="91" route="r230" type="CarDefault" departLane="random"/>
  <vehicle id="v77" depart="92" route="r230" type="CarDefault" departLane="random"/>
  <vehicle id="v80" depart="92" route="r230" type="CarDefault" departLane="random"/>
  <vehicle id="v70" depart="93" route="r230" type="CarDefault" departLane="random"/>
  <vehicle id="v74" depart="93" route="r230" type="CarDefault" departLane="random"/>
  <vehicle id="v72" depart="94" route="r230" type="CarDefault" departLane="random"/>
  <vehicle id="v79" depart="94" route="r230" type="CarDefault" departLane="random"/>
  <vehicle id="v71" depart="95" route="r230" type="CarDefault" departLane="random"/>
  <vehicle id="v76" depart="95" route="r230" type="CarDefault" departLane="random"/>
  <vehicle id="v175" depart="96" route="r231" type="CarDefault" departLane="random"/>
  <vehicle id="v176" depart="96" route="r231" type="CarDefault" departLane="random"/>
  <vehicle id="v177" depart="96" route="r231" type="CarDefault" departLane="random"/>
  <vehicle id="v65" depart="97" route="r230" type="CarDefault" departLane="random"/>
  <vehicle id="v78" depart="97" route="r230" type="CarDefault" departLane="random"/>
  <vehicle id="v183" depart="98" route="r231" type="CarDefault" departLane="random"/>
  <vehicle id="v84" depart="100" route="r230" type="CarDefault" departLane="random"/>
  <vehicle id="v87" depart="100" route="r230" type="CarDefault" departLane="random"/>
  <vehicle id="v94" depart="102" route="r230" type="CarDefault" departLane="random"/>
  <vehicle id="v85" depart="106" route="r230" type="CarDefault" departLane="random"/>
  <vehicle id="v89" depart="107" route="r230" type="CarDefault" departLane="random"/>
  <vehicle id="v93" depart="107" route="r230" type="CarDefault" departLane="random"/>
  <vehicle id="v81" depart="108" route="r230" type="CarDefault" departLane="random"/>
  <vehicle id="v86" depart="108" route="r230" type="CarDefault" departLane="random"/>
  <vehicle id="v90" depart="110" route="r230" type="CarDefault" departLane="random"/>
  <vehicle id="v88" depart="111" route="r230" type="CarDefault" departLane="random"/>
  <vehicle id="v83" depart="112" route="r230" type="CarDefault" departLane="random"/>
  <vehicle id="v82" depart="114" route="r230" type="CarDefault" departLane="random"/>
  <vehicle id="v92" depart="116" route="r230" type="CarDefault" departLane="random"/>
  <vehicle id="v91" depart="118" route="r230" type="CarDefault" departLane="random"/>
  <vehicle id="v96" depart="120" route="r230" type="CarDefault" departLane="random"/>
  <vehicle id="v106" depart="120" route="r230" type="CarDefault" departLane="random"/>
  <vehicle id="v105" depart="121" route="r230" type="CarDefault" departLane="random"/>
  <vehicle id="v95" depart="122" route="r230" type="CarDefault" departLane="random"/>
  <vehicle id="v109" depart="122" route="r230" type="CarDefault" departLane="random"/>
  <vehicle id="v97" depart="124" route="r230" type="CarDefault" departLane="random"/>
  <vehicle id="v108" depart="124" route="r230" type="CarDefault" departLane="random"/>
  <vehicle id="v99" depart="126" route="r230" type="CarDefault" departLane="random"/>
  <vehicle id="v101" depart="126" route="r230" type="CarDefault" departLane="random"/>
  <vehicle id="v103" depart="127" route="r230" type="CarDefault" departLane="random"/>
  <vehicle id="v100" depart="128" route="r230" type="CarDefault" departLane="random"/>
  <vehicle id="v102" depart="128" route="r230" type="CarDefault" departLane="random"/>
  <vehicle id="v98" depart="129" route="r230" type="CarDefault" departLane="random"/>
  <vehicle id="v104" depart="131" route="r230" type="CarDefault" departLane="random"/>
  <vehicle id="v110" depart="131" route="r230" type="CarDefault" departLane="random"/>
  <vehicle id="v107" depart="135" route="r230" type="CarDefault" departLane="random"/>
</routes>
