<?xml version="1.0" ?>
<routes>
  
    
  <vType accel="3.0" decel="6.0" id="CarDefault" length="5.0" minGap="2.5" maxSpeed="50.0" sigma="0.5"/>
  

  <route id="r230" edges="172 173 174 175 140 141 142" fromJunction="55" toJunction="66"/>
  <route id="r231" edges="117 118 108 42 41 40 159" fromJunction="1" toJunction="91"/>
  <route id="r232" edges="113 18 35 64 63 71" fromJunction="13" toJunction="57"/>
  <route id="r233" edges="172 177 180 181 81 60 59 55 53 52 5" fromJunction="55" toJunction="37"/>
  <route id="r234" edges="17 63 62 177 178 30 42 41 40 159" fromJunction="9" toJunction="91"/>
  <route id="r235" edges="96 97 72 128 152 150 151 99 187 106 79 107 24 119 121" fromJunction="24" toJunction="21"/>
  <route id="r236" edges="182 62 177 180 181 81 60 59 55 165" fromJunction="57" toJunction="10"/>
  <route id="r237" edges="113 18 35 34 33 32 115 120 121" fromJunction="13" toJunction="21"/>
  <route id="r238" edges="12 13 126 127 128 152 150 151 99 187 106 79 107 108 135 136 137 138 139 140 112 114" fromJunction="27" toJunction="14"/>
  <route id="r239" edges="182 62 177 178 30 42 46" fromJunction="57" toJunction="3"/>
  <route id="r240" edges="27 25 118 108 42 41 40 39 38 45 111" fromJunction="21" toJunction="86"/>
  <route id="r241" edges="29 13 126 127 128 152 150 151 99 187 106 79 107 108 42 46" fromJunction="35" toJunction="3"/>
  <route id="r242" edges="182 62 177 178 30 42 41 40 39 38 9 160 161" fromJunction="57" toJunction="33"/>
  <route id="r243" edges="129 150 151 99 187 106 79 107 108 135 136 137 138 139 140 112 114" fromJunction="92" toJunction="14"/>
  <route id="r244" edges="129 150 151 99 187 106 79 107 24 119 26 116" fromJunction="92" toJunction="17"/>
  <route id="r245" edges="1 145 146 147 135 67 66 65" fromJunction="91" toJunction="56"/>
  <route id="r246" edges="84 85 86 87 88 45 111" fromJunction="37" toJunction="86"/>
  <route id="r247" edges="17 175 140 141 142" fromJunction="9" toJunction="66"/>
  <route id="r248" edges="12 13 126 127 128 152 150 151 99 187 106 131 130 104 102 98" fromJunction="27" toJunction="29"/>
  <route id="r249" edges="84 85 86 87 88 45 91 102 103 101 188 100 134" fromJunction="37" toJunction="35"/>
  <route id="r250" edges="182 174 175 140 112 19" fromJunction="57" toJunction="13"/>
  <route id="r251" edges="172 173 174 175 34 183 109 73" fromJunction="55" toJunction="7"/>
  <route id="r252" edges="54 166 170 74" fromJunction="10" toJunction="0"/>
  <route id="r253" edges="186 80 151 99 187 106 79 107 108 135 136 137 138 139 140 112 19" fromJunction="7" toJunction="13"/>
  <route id="r254" edges="37 36 35 34 33 32 115 120 25 23" fromJunction="66" toJunction="1"/>
  <route id="r255" edges="172 177 178 30 42 41 40 39 38 45 111" fromJunction="55" toJunction="86"/>
  <route id="r256" edges="113 18 35 34 33 32 115 120 25 23" fromJunction="13" toJunction="1"/>
  <route id="r257" edges="12 13 126 127 128 152 150 151 99 187 106 79 107 108 4 3 60 74" fromJunction="27" toJunction="0"/>
  <route id="r258" edges="22 21 31 30 42 41 47 56 55 165" fromJunction="17" toJunction="10"/>
  <route id="r259" edges="186 80 151 99 187 106 79 107 108 135 67 66 61" fromJunction="7" toJunction="55"/>
  <route id="r260" edges="54 166 167 157 146 46" fromJunction="10" toJunction="3"/>
  <route id="r261" edges="29 13 126 127 128 152 150 151 99 187 106 79 107 108 135 136 137 138 139 140 112 114" fromJunction="35" toJunction="14"/>
  <route id="r262" edges="1 145 47 56 55 165" fromJunction="91" toJunction="10"/>
  <route id="r263" edges="20 18 35 34 183 109 73" fromJunction="14" toJunction="7"/>
  <route id="r264" edges="129 150 151 99 187 106 79 107 108 42 46" fromJunction="92" toJunction="3"/>
  <route id="r265" edges="189 171 2 70 69 66 65" fromJunction="0" toJunction="56"/>
  <route id="r266" edges="117 118 108 135 67 66 61" fromJunction="1" toJunction="55"/>
  <route id="r267" edges="189 171 2 70 69 66 173 174 110" fromJunction="0" toJunction="9"/>
  <route id="r268" edges="186 80 151 99 187 106 79 107 24 23" fromJunction="7" toJunction="1"/>
  <route id="r269" edges="182 62 177 178 136 115 120 121" fromJunction="57" toJunction="21"/>
  <route id="r270" edges="10 93 101 105 106 79 107 108 135 136 137 138 139 140 112 19" fromJunction="34" toJunction="13"/>
  <route id="r271" edges="50 49 88 45 91 102 103 101 188 100 134" fromJunction="33" toJunction="35"/>
  <route id="r272" edges="123 36 35 34 33 32 115 120 121" fromJunction="58" toJunction="21"/>
  <route id="r273" edges="50 49 88 45 111" fromJunction="33" toJunction="86"/>
  <route id="r274" edges="96 97 72 128 152 150 151 99 187 106 131 130 143 89 90 155 156 43 9 8 7 6 5" fromJunction="24" toJunction="37"/>
  <route id="r275" edges="22 21 31 67 66 61" fromJunction="17" toJunction="55"/>
  <route id="r276" edges="50 49 88 45 91 102 98" fromJunction="33" toJunction="29"/>
  <route id="r277" edges="1 145 146 147 15 14 78 130 104 102 103 101 188 100 134" fromJunction="91" toJunction="35"/>
  <route id="r278" edges="123 36 35 34 183 109 80 151 149 127 185 94 134" fromJunction="58" toJunction="35"/>
  <route id="r279" edges="123 36 35 64 63 62 61" fromJunction="58" toJunction="55"/>
  <route id="r280" edges="50 49 88 153 144 145 146 147 135 67 66 65" fromJunction="33" toJunction="56"/>
  <route id="r281" edges="27 25 118 14 78 130 104 102 98" fromJunction="21" toJunction="29"/>
  <route id="r282" edges="12 13 126 127 128 152 150 151 99 187 106 131 130 143 89 90 155 156 111" fromJunction="27" toJunction="86"/>
  <route id="r283" edges="113 114" fromJunction="13" toJunction="14"/>
  <route id="r284" edges="12 13 126 127 128 152 150 151 99 187 106 131 130 143 89 90 155 156 43 9 160 161" fromJunction="27" toJunction="33"/>
  <route id="r285" edges="117 118 108 4 3 60 74" fromJunction="1" toJunction="0"/>
  <route id="r286" edges="132 133 43 153 144 145 146 147 135 67 66 173 174 110" fromJunction="77" toJunction="9"/>
  <route id="r287" edges="189 171 82 83 15 14 78 130 104 102 103 101 188 100 134" fromJunction="0" toJunction="35"/>
  <route id="r288" edges="123 36 35 34 33 32 115 120 25 23" fromJunction="58" toJunction="1"/>
  <route id="r289" edges="117 119 26 21 137 138 139 140 141 28" fromJunction="1" toJunction="58"/>
  <route id="r290" edges="10 93 101 105 106 131 130 143 89 90 155 156 43 9 8 7 6 5" fromJunction="34" toJunction="37"/>
  <route id="r291" edges="172 177 178 136 115 116" fromJunction="55" toJunction="17"/>
  <route id="r292" edges="37 36 35 34 33 32 31 30 42 41 47 56 55 165" fromJunction="66" toJunction="10"/>
  <route id="r293" edges="20 18 35 34 33 32 31 30 42 46" fromJunction="14" toJunction="3"/>
  <route id="r294" edges="182 174 175 34 183 109 80 151 149 127 128 184" fromJunction="57" toJunction="30"/>
  <route id="r295" edges="129 150 151 99 187 106 131 130 143 89 90 155 156 111" fromJunction="92" toJunction="86"/>
  <route id="r296" edges="37 36 35 34 33 32 31 30 42 41 40 159" fromJunction="66" toJunction="91"/>
  <route id="r297" edges="17 175 34 183 109 80 151 149 127 185 94 134" fromJunction="9" toJunction="35"/>
  <route id="r298" edges="123 36 35 34 183 109 80 151 149 127 185 94 95" fromJunction="58" toJunction="27"/>
  <route id="r299" edges="172 173 174 175 34 183 109 80 151 149 127 128 184" fromJunction="55" toJunction="30"/>
  <route id="r300" edges="132 133 43 9 160 161" fromJunction="77" toJunction="33"/>
  <route id="r301" edges="84 85 86 87 88 153 144 145 146 147 135 136 137 138 139 140 141 28" fromJunction="37" toJunction="58"/>
  <route id="r302" edges="129 150 151 99 187 106 79 107 24 119 121" fromJunction="92" toJunction="21"/>
  <route id="r303" edges="117 119 26 21 137 138 139 140 112 114" fromJunction="1" toJunction="14"/>
  <route id="r304" edges="27 26 21 137 138 139 140 112 19" fromJunction="21" toJunction="13"/>
  <route id="r305" edges="37 36 35 34 33 32 115 116" fromJunction="66" toJunction="17"/>
  <route id="r306" edges="22 21 137 138 139 140 141 142" fromJunction="17" toJunction="66"/>
  <route id="r307" edges="129 150 151 149 127 185 94 134" fromJunction="92" toJunction="35"/>
  <route id="r308" edges="154 147 15 14 78 130 104 102 103 101 188 100 95" fromJunction="3" toJunction="27"/>
  <route id="r309" edges="22 120 25 118 14 78 130 104 102 98" fromJunction="17" toJunction="29"/>
  <route id="r310" edges="22 120 121" fromJunction="17" toJunction="21"/>
  <route id="r311" edges="20 18 35 64 110" fromJunction="14" toJunction="9"/>
  <route id="r312" edges="50 125 6 5" fromJunction="33" toJunction="37"/>
  <route id="r313" edges="154 147 135 67 66 173 71" fromJunction="3" toJunction="57"/>
  <route id="r314" edges="129 150 151 149 127 128 184" fromJunction="92" toJunction="30"/>
  <route id="r315" edges="17 63 62 177 180 181 81 60 59 55 165" fromJunction="9" toJunction="10"/>
  <route id="r316" edges="27 26 116" fromJunction="21" toJunction="17"/>
  <route id="r317" edges="29 13 126 127 128 152 150 151 99 187 106 79 107 24 119 121" fromJunction="35" toJunction="21"/>
  <route id="r318" edges="132 133 43 153 144 145 146 147 135 136 137 138 139 140 141 142" fromJunction="77" toJunction="66"/>
  <route id="r319" edges="154 147 135 136 137 138 183 109 80 151 149 127 128 184" fromJunction="3" toJunction="30"/>
  <route id="r320" edges="20 18 35 34 33 32 31 30 42 41 40 159" fromJunction="14" toJunction="91"/>
  <route id="r321" edges="50 49 88 153 144 145 146 147 135 136 137 138 139 140 112 19" fromJunction="33" toJunction="13"/>
  <route id="r322" edges="29 13 126 127 128 152 150 151 99 187 106 79 107 108 135 67 66 65" fromJunction="35" toJunction="56"/>
  <route id="r323" edges="12 13 126 127 128 152 150 151 99 187 106 79 107 108 135 136 137 138 139 140 141 142" fromJunction="27" toJunction="66"/>
  <route id="r324" edges="54 53 52 5" fromJunction="10" toJunction="37"/>
  <route id="r325" edges="12 13 126 127 128 152 150 151 99 187 106 131 130 143 89 90 155 156 43 9 8 7 6 5" fromJunction="27" toJunction="37"/>
  <route id="r326" edges="37 36 35 34 183 109 80 151 149 127 185 94 134" fromJunction="66" toJunction="35"/>
  <route id="r327" edges="37 36 112 19" fromJunction="66" toJunction="13"/>
  <route id="r328" edges="50 49 88 153 144 145 146 147 135 67 66 61" fromJunction="33" toJunction="55"/>
  <route id="r329" edges="113 18 35 34 33 32 31 30 42 41 40 39 38 9 160 161" fromJunction="13" toJunction="33"/>
  <route id="r330" edges="96 97 72 128 152 150 0 73" fromJunction="24" toJunction="7"/>
  <route id="r331" edges="17 175 140 141 28" fromJunction="9" toJunction="58"/>
  <route id="r332" edges="12 134" fromJunction="27" toJunction="35"/>
  <route id="r333" edges="154 41 40 39 38 9 160 161" fromJunction="3" toJunction="33"/>
  <route id="r334" edges="176 177 178 30 42 41 40 39 38 45 111" fromJunction="56" toJunction="86"/>
  <route id="r335" edges="132 133 91 102 98" fromJunction="77" toJunction="29"/>
  <route id="r336" edges="17 175 140 112 19" fromJunction="9" toJunction="13"/>
  <route id="r337" edges="84 163 164 166 170 171 2 70 69 66 65" fromJunction="37" toJunction="56"/>
  <route id="r338" edges="176 173 174 175 34 183 109 80 151 149 127 185 94 95" fromJunction="56" toJunction="27"/>
  <route id="r339" edges="37 36 35 34 33 32 115 120 121" fromJunction="66" toJunction="21"/>
  <route id="r340" edges="20 18 35 34 33 32 115 120 121" fromJunction="14" toJunction="21"/>
  <route id="r341" edges="50 49 88 153 144 145 146 147 15 24 119 121" fromJunction="33" toJunction="21"/>
  <route id="r342" edges="54 166 167 157 146 147 135 136 137 138 183 109 80 151 149 127 128 184" fromJunction="10" toJunction="30"/>
  <route id="r343" edges="113 18 141 142" fromJunction="13" toJunction="66"/>
  <route id="r344" edges="12 13 126 127 128 152 150 151 99 187 106 79 107 108 135 67 66 65" fromJunction="27" toJunction="56"/>
  <route id="r345" edges="12 11 72 128 152 150 0 73" fromJunction="27" toJunction="7"/>
  <route id="r346" edges="189 171 2 70 69 68 138 183 109 73" fromJunction="0" toJunction="7"/>
  <route id="r347" edges="154 147 135 136 137 138 139 140 112 114" fromJunction="3" toJunction="14"/>
  <route id="r348" edges="123 36 35 34 33 32 31 30 42 41 47 56 55 165" fromJunction="58" toJunction="10"/>
  <route id="r349" edges="50 49 8 162 169 164 165" fromJunction="33" toJunction="10"/>
  <route id="r350" edges="50 49 88 153 144 145 47 56 170 74" fromJunction="33" toJunction="0"/>
  <route id="r351" edges="182 62 65" fromJunction="57" toJunction="56"/>
  <route id="r352" edges="113 18 35 34 183 109 80 151 149 127 185 94 134" fromJunction="13" toJunction="35"/>
  <route id="r353" edges="12 13 126 127 128 152 150 151 99 187 106 79 107 24 119 26 116" fromJunction="27" toJunction="17"/>
  <route id="r354" edges="129 150 151 99 187 106 131 130 143 89 90 155 156 43 9 8 7 6 5" fromJunction="92" toJunction="37"/>
  <route id="r355" edges="20 18 35 34 33 179 180 181 81 60 74" fromJunction="14" toJunction="0"/>
  <route id="r356" edges="29 11 72 128 184" fromJunction="35" toJunction="30"/>
  <route id="r357" edges="20 18 35 64 63 62 61" fromJunction="14" toJunction="55"/>
  <route id="r358" edges="50 49 88 153 144 145 146 147 15 24 23" fromJunction="33" toJunction="1"/>
  <route id="r359" edges="176 177 180 181 81 60 59 55 53 52 5" fromJunction="56" toJunction="37"/>
  <route id="r360" edges="54 166 167 157 146 147 15 14 78 130 104 102 103 101 188 100 95" fromJunction="10" toJunction="27"/>
  <route id="r361" edges="129 150 151 99 187 106 79 107 108 4 3 60 74" fromJunction="92" toJunction="0"/>
  <route id="r362" edges="12 13 126 127 128 152 150 151 99 187 106 79 107 108 135 136 137 138 139 140 112 19" fromJunction="27" toJunction="13"/>
  <route id="r363" edges="132 133 43 153 144 145 146 147 15 24 119 121" fromJunction="77" toJunction="21"/>
  <route id="r364" edges="22 21 31 30 4 3 60 74" fromJunction="17" toJunction="0"/>
  <route id="r365" edges="182 174 175 34 183 109 80 151 149 127 185 94 95" fromJunction="57" toJunction="27"/>
  <route id="r366" edges="50 49 88 153 144 145 146 147 135 136 137 138 139 140 141 142" fromJunction="33" toJunction="66"/>
  <route id="r367" edges="182 174 110" fromJunction="57" toJunction="9"/>
  <route id="r368" edges="50 49 88 45 91 102 103 101 188 100 95" fromJunction="33" toJunction="27"/>
  <route id="r369" edges="186 80 151 99 187 106 79 107 108 135 136 137 138 139 140 141 28" fromJunction="7" toJunction="58"/>
  <route id="r370" edges="20 18 35 34 183 109 80 151 149 127 185 94 95" fromJunction="14" toJunction="27"/>
  <route id="r371" edges="113 18 35 34 33 179 180 181 81 60 74" fromJunction="13" toJunction="0"/>
  <route id="r372" edges="27 26 21 137 138 183 109 73" fromJunction="21" toJunction="7"/>
  <route id="r373" edges="17 63 62 177 178 30 42 46" fromJunction="9" toJunction="3"/>
  <route id="r374" edges="1 145 146 46" fromJunction="91" toJunction="3"/>
  <route id="r375" edges="96 97 72 128 152 150 151 99 187 106 79 107 108 135 136 137 138 139 140 112 114" fromJunction="24" toJunction="14"/>
  <route id="r376" edges="176 173 174 175 34 183 109 80 151 149 127 185 94 134" fromJunction="56" toJunction="35"/>
  <route id="r377" edges="1 145 146 147 135 67 66 173 174 110" fromJunction="91" toJunction="9"/>
  <route id="r378" edges="172 177 180 181 81 60 59 55 165" fromJunction="55" toJunction="10"/>
  <route id="r379" edges="10 93 101 105 106 79 107 108 135 136 137 138 139 140 141 142" fromJunction="34" toJunction="66"/>
  <route id="r380" edges="189 59 167 75 76 77 88 45 111" fromJunction="0" toJunction="86"/>
  <route id="r381" edges="84 163 164 166 170 171 2 70 69 66 173 174 110" fromJunction="37" toJunction="9"/>
  <route id="r382" edges="117 118 108 42 46" fromJunction="1" toJunction="3"/>
  <route id="r383" edges="154 147 135 67 66 173 174 110" fromJunction="3" toJunction="9"/>
  <route id="r384" edges="20 18 35 34 33 32 31 30 42 41 47 56 55 53 52 5" fromJunction="14" toJunction="37"/>
  <route id="r385" edges="1 145 146 147 135 136 137 138 183 109 80 151 149 127 128 184" fromJunction="91" toJunction="30"/>
  <route id="r386" edges="96 97 72 128 152 150 151 99 187 106 131 130 104 102 98" fromJunction="24" toJunction="29"/>
  <route id="r387" edges="182 62 177 178 30 42 41 40 39 38 45 111" fromJunction="57" toJunction="86"/>
  <route id="r388" edges="129 150 151 99 187 106 131 130 104 102 98" fromJunction="92" toJunction="29"/>
  <route id="r389" edges="12 13 126 127 128 152 150 151 99 187 106 79 107 108 135 67 66 173 174 110" fromJunction="27" toJunction="9"/>
  <route id="r390" edges="84 85 86 87 88 153 144 145 146 147 135 136 115 116" fromJunction="37" toJunction="17"/>
  <route id="r391" edges="27 25 118 108 42 41 47 56 55 53 52 5" fromJunction="21" toJunction="37"/>
  <route id="r392" edges="17 63 62 177 178 30 15 14 78 130 104 102 98" fromJunction="9" toJunction="29"/>
  <route id="r393" edges="123 36 35 34 33 32 31 30 42 41 40 39 38 45 111" fromJunction="58" toJunction="86"/>
  <route id="r394" edges="176 61" fromJunction="56" toJunction="55"/>
  <route id="r395" edges="10 93 101 105 106 79 107 108 135 67 66 173 71" fromJunction="34" toJunction="57"/>
  <route id="r396" edges="172 177 178 30 15 14 78 130 104 102 98" fromJunction="55" toJunction="29"/>
  <route id="r397" edges="132 133 43 153 144 145 146 147 135 136 137 138 139 140 112 114" fromJunction="77" toJunction="14"/>
  <route id="r398" edges="189 171 82 83 15 14 78 130 104 102 98" fromJunction="0" toJunction="29"/>
  <route id="r399" edges="117 119 26 116" fromJunction="1" toJunction="17"/>
  <route id="r400" edges="189 171 2 70 69 68 138 139 140 141 142" fromJunction="0" toJunction="66"/>
  <route id="r401" edges="132 133 111" fromJunction="77" toJunction="86"/>
  <route id="r402" edges="182 174 175 34 183 109 80 151 149 127 185 94 134" fromJunction="57" toJunction="35"/>
  <route id="r403" edges="54 53 58 51 87 160 161" fromJunction="10" toJunction="33"/>
  <route id="r404" edges="1 145 146 147 135 136 137 138 139 140 112 114" fromJunction="91" toJunction="14"/>
  <route id="r405" edges="132 133 43 153 144 145 47 56 55 165" fromJunction="77" toJunction="10"/>
  <route id="r406" edges="154 147 135 136 137 138 139 140 141 142" fromJunction="3" toJunction="66"/>
  <route id="r407" edges="1 39 124 77 8 7 6 5" fromJunction="91" toJunction="37"/>
  <route id="r408" edges="54 166 170 171 2 70 69 66 65" fromJunction="10" toJunction="56"/>
  <route id="r409" edges="27 26 21 31 67 66 65" fromJunction="21" toJunction="56"/>
  <route id="r410" edges="186 80 151 149 127 185 94 95" fromJunction="7" toJunction="27"/>
  <route id="r411" edges="84 85 86 87 88 153 144 159" fromJunction="37" toJunction="91"/>
  <route id="r412" edges="154 41 47 56 55 53 52 5" fromJunction="3" toJunction="37"/>
  <route id="r413" edges="17 175 34 33 32 115 116" fromJunction="9" toJunction="17"/>
  <route id="r414" edges="113 18 141 28" fromJunction="13" toJunction="58"/>
  <route id="r415" edges="54 166 170 171 2 70 69 66 173 71" fromJunction="10" toJunction="57"/>
  <route id="r416" edges="54 166 167 157 146 147 135 136 137 138 139 140 141 28" fromJunction="10" toJunction="58"/>
  <route id="r417" edges="132 133 43 153 144 145 146 147 135 136 137 138 139 140 112 19" fromJunction="77" toJunction="13"/>
  <route id="r418" edges="27 25 118 14 78 130 104 102 103 101 188 100 95" fromJunction="21" toJunction="27"/>
  <route id="r419" edges="22 120 25 118 14 78 130 104 102 103 101 188 100 95" fromJunction="17" toJunction="27"/>
  <route id="r420" edges="176 177 180 181 81 60 59 55 165" fromJunction="56" toJunction="10"/>
  <route id="r421" edges="186 80 151 99 187 106 79 107 24 119 26 116" fromJunction="7" toJunction="17"/>
  <route id="r422" edges="172 177 178 136 115 120 121" fromJunction="55" toJunction="21"/>
  <vehicle id="v0" depart="0.0" route="r230" type="CarDefault" departLane="random"/>
  <vehicle id="v1" depart="1.18" route="r231" type="CarDefault" departLane="random"/>
  <vehicle id="v2" depart="2.36" route="r232" type="CarDefault" departLane="random"/>
  <vehicle id="v3" depart="3.54" route="r233" type="CarDefault" departLane="random"/>
  <vehicle id="v4" depart="4.72" route="r234" type="CarDefault" departLane="random"/>
  <vehicle id="v5" depart="5.91" route="r235" type="CarDefault" departLane="random"/>
  <vehicle id="v6" depart="7.09" route="r236" type="CarDefault" departLane="random"/>
  <vehicle id="v7" depart="8.27" route="r237" type="CarDefault" departLane="random"/>
  <vehicle id="v8" depart="9.45" route="r238" type="CarDefault" departLane="random"/>
  <vehicle id="v9" depart="10.63" route="r239" type="CarDefault" departLane="random"/>
  <vehicle id="v10" depart="11.81" route="r240" type="CarDefault" departLane="random"/>
  <vehicle id="v11" depart="12.99" route="r241" type="CarDefault" departLane="random"/>
  <vehicle id="v12" depart="14.17" route="r242" type="CarDefault" departLane="random"/>
  <vehicle id="v13" depart="15.35" route="r243" type="CarDefault" departLane="random"/>
  <vehicle id="v14" depart="16.53" route="r244" type="CarDefault" departLane="random"/>
  <vehicle id="v15" depart="17.71" route="r245" type="CarDefault" departLane="random"/>
  <vehicle id="v16" depart="18.9" route="r246" type="CarDefault" departLane="random"/>
  <vehicle id="v17" depart="20.08" route="r247" type="CarDefault" departLane="random"/>
  <vehicle id="v18" depart="21.26" route="r248" type="CarDefault" departLane="random"/>
  <vehicle id="v19" depart="22.44" route="r249" type="CarDefault" departLane="random"/>
  <vehicle id="v20" depart="23.62" route="r250" type="CarDefault" departLane="random"/>
  <vehicle id="v21" depart="24.8" route="r251" type="CarDefault" departLane="random"/>
  <vehicle id="v22" depart="25.98" route="r252" type="CarDefault" departLane="random"/>
  <vehicle id="v23" depart="27.16" route="r253" type="CarDefault" departLane="random"/>
  <vehicle id="v24" depart="28.34" route="r239" type="CarDefault" departLane="random"/>
  <vehicle id="v25" depart="29.53" route="r254" type="CarDefault" departLane="random"/>
  <vehicle id="v26" depart="30.71" route="r255" type="CarDefault" departLane="random"/>
  <vehicle id="v27" depart="31.89" route="r256" type="CarDefault" departLane="random"/>
  <vehicle id="v28" depart="33.07" route="r257" type="CarDefault" departLane="random"/>
  <vehicle id="v29" depart="34.25" route="r258" type="CarDefault" departLane="random"/>
  <vehicle id="v30" depart="35.43" route="r259" type="CarDefault" departLane="random"/>
  <vehicle id="v31" depart="36.61" route="r260" type="CarDefault" departLane="random"/>
  <vehicle id="v32" depart="37.79" route="r261" type="CarDefault" departLane="random"/>
  <vehicle id="v33" depart="38.97" route="r262" type="CarDefault" departLane="random"/>
  <vehicle id="v34" depart="40.15" route="r263" type="CarDefault" departLane="random"/>
  <vehicle id="v35" depart="41.34" route="r264" type="CarDefault" departLane="random"/>
  <vehicle id="v36" depart="42.52" route="r262" type="CarDefault" departLane="random"/>
  <vehicle id="v37" depart="43.7" route="r265" type="CarDefault" departLane="random"/>
  <vehicle id="v38" depart="44.88" route="r266" type="CarDefault" departLane="random"/>
  <vehicle id="v39" depart="46.06" route="r267" type="CarDefault" departLane="random"/>
  <vehicle id="v40" depart="47.24" route="r232" type="CarDefault" departLane="random"/>
  <vehicle id="v41" depart="48.42" route="r268" type="CarDefault" departLane="random"/>
  <vehicle id="v42" depart="49.6" route="r269" type="CarDefault" departLane="random"/>
  <vehicle id="v43" depart="50.78" route="r270" type="CarDefault" departLane="random"/>
  <vehicle id="v44" depart="51.96" route="r271" type="CarDefault" departLane="random"/>
  <vehicle id="v45" depart="53.15" route="r272" type="CarDefault" departLane="random"/>
  <vehicle id="v46" depart="54.33" route="r273" type="CarDefault" departLane="random"/>
  <vehicle id="v47" depart="55.51" route="r237" type="CarDefault" departLane="random"/>
  <vehicle id="v48" depart="56.69" route="r274" type="CarDefault" departLane="random"/>
  <vehicle id="v49" depart="57.87" route="r275" type="CarDefault" departLane="random"/>
  <vehicle id="v50" depart="59.05" route="r276" type="CarDefault" departLane="random"/>
  <vehicle id="v51" depart="60.23" route="r277" type="CarDefault" departLane="random"/>
  <vehicle id="v52" depart="61.41" route="r278" type="CarDefault" departLane="random"/>
  <vehicle id="v53" depart="62.59" route="r279" type="CarDefault" departLane="random"/>
  <vehicle id="v54" depart="63.77" route="r264" type="CarDefault" departLane="random"/>
  <vehicle id="v55" depart="64.95" route="r280" type="CarDefault" departLane="random"/>
  <vehicle id="v56" depart="66.14" route="r281" type="CarDefault" departLane="random"/>
  <vehicle id="v57" depart="67.32" route="r282" type="CarDefault" departLane="random"/>
  <vehicle id="v58" depart="68.5" route="r283" type="CarDefault" departLane="random"/>
  <vehicle id="v59" depart="69.68" route="r284" type="CarDefault" departLane="random"/>
  <vehicle id="v60" depart="70.86" route="r248" type="CarDefault" departLane="random"/>
  <vehicle id="v61" depart="72.04" route="r285" type="CarDefault" departLane="random"/>
  <vehicle id="v62" depart="73.22" route="r284" type="CarDefault" departLane="random"/>
  <vehicle id="v63" depart="74.4" route="r286" type="CarDefault" departLane="random"/>
  <vehicle id="v64" depart="75.58" route="r287" type="CarDefault" departLane="random"/>
  <vehicle id="v65" depart="76.77" route="r288" type="CarDefault" departLane="random"/>
  <vehicle id="v66" depart="77.95" route="r289" type="CarDefault" departLane="random"/>
  <vehicle id="v67" depart="79.13" route="r290" type="CarDefault" departLane="random"/>
  <vehicle id="v68" depart="80.31" route="r291" type="CarDefault" departLane="random"/>
  <vehicle id="v69" depart="81.49" route="r292" type="CarDefault" departLane="random"/>
  <vehicle id="v70" depart="82.67" route="r286" type="CarDefault" departLane="random"/>
  <vehicle id="v71" depart="83.85" route="r231" type="CarDefault" departLane="random"/>
  <vehicle id="v72" depart="85.03" route="r233" type="CarDefault" departLane="random"/>
  <vehicle id="v73" depart="86.21" route="r293" type="CarDefault" departLane="random"/>
  <vehicle id="v74" depart="87.39" route="r294" type="CarDefault" departLane="random"/>
  <vehicle id="v75" depart="88.58" route="r295" type="CarDefault" departLane="random"/>
  <vehicle id="v76" depart="89.76" route="r296" type="CarDefault" departLane="random"/>
  <vehicle id="v77" depart="90.94" route="r297" type="CarDefault" departLane="random"/>
  <vehicle id="v78" depart="92.12" route="r298" type="CarDefault" departLane="random"/>
  <vehicle id="v79" depart="93.3" route="r299" type="CarDefault" departLane="random"/>
  <vehicle id="v80" depart="94.48" route="r300" type="CarDefault" departLane="random"/>
  <vehicle id="v81" depart="95.66" route="r301" type="CarDefault" departLane="random"/>
  <vehicle id="v82" depart="96.84" route="r302" type="CarDefault" departLane="random"/>
  <vehicle id="v83" depart="98.02" route="r303" type="CarDefault" departLane="random"/>
  <vehicle id="v84" depart="99.2" route="r304" type="CarDefault" departLane="random"/>
  <vehicle id="v85" depart="100.39" route="r305" type="CarDefault" departLane="random"/>
  <vehicle id="v86" depart="101.57" route="r306" type="CarDefault" departLane="random"/>
  <vehicle id="v87" depart="102.75" route="r307" type="CarDefault" departLane="random"/>
  <vehicle id="v88" depart="103.93" route="r308" type="CarDefault" departLane="random"/>
  <vehicle id="v89" depart="105.11" route="r309" type="CarDefault" departLane="random"/>
  <vehicle id="v90" depart="106.29" route="r310" type="CarDefault" departLane="random"/>
  <vehicle id="v91" depart="107.47" route="r311" type="CarDefault" departLane="random"/>
  <vehicle id="v92" depart="108.65" route="r300" type="CarDefault" departLane="random"/>
  <vehicle id="v93" depart="109.83" route="r312" type="CarDefault" departLane="random"/>
  <vehicle id="v94" depart="111.01" route="r313" type="CarDefault" departLane="random"/>
  <vehicle id="v95" depart="112.2" route="r314" type="CarDefault" departLane="random"/>
  <vehicle id="v96" depart="113.38" route="r315" type="CarDefault" departLane="random"/>
  <vehicle id="v97" depart="114.56" route="r234" type="CarDefault" departLane="random"/>
  <vehicle id="v98" depart="115.74" route="r316" type="CarDefault" departLane="random"/>
  <vehicle id="v99" depart="116.92" route="r317" type="CarDefault" departLane="random"/>
  <vehicle id="v100" depart="118.1" route="r318" type="CarDefault" departLane="random"/>
  <vehicle id="v101" depart="119.28" route="r319" type="CarDefault" departLane="random"/>
  <vehicle id="v102" depart="120.46" route="r320" type="CarDefault" departLane="random"/>
  <vehicle id="v103" depart="121.64" route="r321" type="CarDefault" departLane="random"/>
  <vehicle id="v104" depart="122.82" route="r322" type="CarDefault" departLane="random"/>
  <vehicle id="v105" depart="124.01" route="r323" type="CarDefault" departLane="random"/>
  <vehicle id="v106" depart="125.19" route="r324" type="CarDefault" departLane="random"/>
  <vehicle id="v107" depart="126.37" route="r325" type="CarDefault" departLane="random"/>
  <vehicle id="v108" depart="127.55" route="r326" type="CarDefault" departLane="random"/>
  <vehicle id="v109" depart="128.73" route="r327" type="CarDefault" departLane="random"/>
  <vehicle id="v110" depart="129.91" route="r328" type="CarDefault" departLane="random"/>
  <vehicle id="v111" depart="131.09" route="r251" type="CarDefault" departLane="random"/>
  <vehicle id="v112" depart="132.27" route="r329" type="CarDefault" departLane="random"/>
  <vehicle id="v113" depart="133.45" route="r330" type="CarDefault" departLane="random"/>
  <vehicle id="v114" depart="134.63" route="r331" type="CarDefault" departLane="random"/>
  <vehicle id="v115" depart="135.81" route="r332" type="CarDefault" departLane="random"/>
  <vehicle id="v116" depart="137.0" route="r305" type="CarDefault" departLane="random"/>