<?xml version='1.0' encoding='utf-8'?>
<routes>
	<vType accel="3.0" decel="6.0" id="CarDefault" length="5.0" minGap="2.5" maxSpeed="50.0" sigma="0.5" />
	<route id="r230" edges="132 133 43 153 144 145 47 56 170 74" fromJunction="77" toJunction="0" />
	<route id="r231" edges="10 93 101 105 106 79 107 108 42 41 47 56 55 165" fromJunction="34" toJunction="10" />
	<vehicle id="v0" depart="0" route="r230" type="CarDefault" departLane="random" />
	<vehicle id="v200" depart="0" route="r231" type="CarDefault" departLane="random" />
	<vehicle id="v1" depart="3" route="r230" type="CarDefault" departLane="random" />
	<vehicle id="v201" depart="3" route="r231" type="CarDefault" departLane="random" />
	<vehicle id="v2" depart="6" route="r230" type="CarDefault" departLane="random" />
	<vehicle id="v202" depart="6" route="r231" type="CarDefault" departLane="random" />
	<vehicle id="v3" depart="9" route="r230" type="CarDefault" departLane="random" />
	<vehicle id="v203" depart="9" route="r231" type="CarDefault" departLane="random" />
	<vehicle id="v4" depart="12" route="r230" type="CarDefault" departLane="random" />
	<vehicle id="v204" depart="12" route="r231" type="CarDefault" departLane="random" />
	<vehicle id="v5" depart="15" route="r230" type="CarDefault" departLane="random" />
	<vehicle id="v205" depart="15" route="r231" type="CarDefault" departLane="random" />
	<vehicle id="v6" depart="18" route="r230" type="CarDefault" departLane="random" />
	<vehicle id="v206" depart="18" route="r231" type="CarDefault" departLane="random" />
	<vehicle id="v7" depart="21" route="r230" type="CarDefault" departLane="random" />
	<vehicle id="v207" depart="21" route="r231" type="CarDefault" departLane="random" />
	<vehicle id="v8" depart="24" route="r230" type="CarDefault" departLane="random" />
	<vehicle id="v208" depart="24" route="r231" type="CarDefault" departLane="random" />
	<vehicle id="v9" depart="27" route="r230" type="CarDefault" departLane="random" />
	<vehicle id="v209" depart="27" route="r231" type="CarDefault" departLane="random" />
	<vehicle id="v10" depart="30" route="r230" type="CarDefault" departLane="random" />
	<vehicle id="v210" depart="30" route="r231" type="CarDefault" departLane="random" />
	<vehicle id="v11" depart="33" route="r230" type="CarDefault" departLane="random" />
	<vehicle id="v211" depart="33" route="r231" type="CarDefault" departLane="random" />
	<vehicle id="v12" depart="36" route="r230" type="CarDefault" departLane="random" />
	<vehicle id="v212" depart="36" route="r231" type="CarDefault" departLane="random" />
	<vehicle id="v13" depart="39" route="r230" type="CarDefault" departLane="random" />
	<vehicle id="v213" depart="39" route="r231" type="CarDefault" departLane="random" />
	<vehicle id="v14" depart="42" route="r230" type="CarDefault" departLane="random" />
	<vehicle id="v214" depart="42" route="r231" type="CarDefault" departLane="random" />
	<vehicle id="v15" depart="45" route="r230" type="CarDefault" departLane="random" />
	<vehicle id="v215" depart="45" route="r231" type="CarDefault" departLane="random" />
	<vehicle id="v16" depart="48" route="r230" type="CarDefault" departLane="random" />
	<vehicle id="v216" depart="48" route="r231" type="CarDefault" departLane="random" />
	<vehicle id="v17" depart="51" route="r230" type="CarDefault" departLane="random" />
	<vehicle id="v217" depart="51" route="r231" type="CarDefault" departLane="random" />
	<vehicle id="v18" depart="54" route="r230" type="CarDefault" departLane="random" />
	<vehicle id="v218" depart="54" route="r231" type="CarDefault" departLane="random" />
	<vehicle id="v19" depart="57" route="r230" type="CarDefault" departLane="random" />
	<vehicle id="v219" depart="57" route="r231" type="CarDefault" departLane="random" />
	<vehicle id="v20" depart="60" route="r230" type="CarDefault" departLane="random" />
	<vehicle id="v220" depart="60" route="r231" type="CarDefault" departLane="random" />
	<vehicle id="v21" depart="63" route="r230" type="CarDefault" departLane="random" />
	<vehicle id="v221" depart="63" route="r231" type="CarDefault" departLane="random" />
	<vehicle id="v22" depart="66" route="r230" type="CarDefault" departLane="random" />
	<vehicle id="v222" depart="66" route="r231" type="CarDefault" departLane="random" />
	<vehicle id="v23" depart="69" route="r230" type="CarDefault" departLane="random" />
	<vehicle id="v223" depart="69" route="r231" type="CarDefault" departLane="random" />
	<vehicle id="v24" depart="72" route="r230" type="CarDefault" departLane="random" />
	<vehicle id="v224" depart="72" route="r231" type="CarDefault" departLane="random" />
	<vehicle id="v25" depart="75" route="r230" type="CarDefault" departLane="random" />
	<vehicle id="v225" depart="75" route="r231" type="CarDefault" departLane="random" />
	<vehicle id="v26" depart="78" route="r230" type="CarDefault" departLane="random" />
	<vehicle id="v226" depart="78" route="r231" type="CarDefault" departLane="random" />
	<vehicle id="v27" depart="81" route="r230" type="CarDefault" departLane="random" />
	<vehicle id="v227" depart="81" route="r231" type="CarDefault" departLane="random" />
	<vehicle id="v28" depart="84" route="r230" type="CarDefault" departLane="random" />
	<vehicle id="v228" depart="84" route="r231" type="CarDefault" departLane="random" />
	<vehicle id="v29" depart="87" route="r230" type="CarDefault" departLane="random" />
	<vehicle id="v229" depart="87" route="r231" type="CarDefault" departLane="random" />
	<vehicle id="v30" depart="90" route="r230" type="CarDefault" departLane="random" />
	<vehicle id="v230" depart="90" route="r231" type="CarDefault" departLane="random" />
	<vehicle id="v31" depart="93" route="r230" type="CarDefault" departLane="random" />
	<vehicle id="v231" depart="93" route="r231" type="CarDefault" departLane="random" />
	<vehicle id="v32" depart="96" route="r230" type="CarDefault" departLane="random" />
	<vehicle id="v232" depart="96" route="r231" type="CarDefault" departLane="random" />
	<vehicle id="v33" depart="99" route="r230" type="CarDefault" departLane="random" />
	<vehicle id="v233" depart="99" route="r231" type="CarDefault" departLane="random" />
	<vehicle id="v34" depart="103" route="r230" type="CarDefault" departLane="random" />
	<vehicle id="v234" depart="103" route="r231" type="CarDefault" departLane="random" />
	<vehicle id="v35" depart="106" route="r230" type="CarDefault" departLane="random" />
	<vehicle id="v235" depart="106" route="r231" type="CarDefault" departLane="random" />
	<vehicle id="v36" depart="109" route="r230" type="CarDefault" departLane="random" />
	<vehicle id="v236" depart="109" route="r231" type="CarDefault" departLane="random" />
	<vehicle id="v37" depart="112" route="r230" type="CarDefault" departLane="random" />
	<vehicle id="v237" depart="112" route="r231" type="CarDefault" departLane="random" />
	<vehicle id="v38" depart="115" route="r230" type="CarDefault" departLane="random" />
	<vehicle id="v238" depart="115" route="r231" type="CarDefault" departLane="random" />
	<vehicle id="v39" depart="118" route="r230" type="CarDefault" departLane="random" />
	<vehicle id="v239" depart="118" route="r231" type="CarDefault" departLane="random" />
	<vehicle id="v40" depart="121" route="r230" type="CarDefault" departLane="random" />
	<vehicle id="v240" depart="121" route="r231" type="CarDefault" departLane="random" />
	<vehicle id="v41" depart="124" route="r230" type="CarDefault" departLane="random" />
	<vehicle id="v241" depart="124" route="r231" type="CarDefault" departLane="random" />
	<vehicle id="v42" depart="127" route="r230" type="CarDefault" departLane="random" />
	<vehicle id="v242" depart="127" route="r231" type="CarDefault" departLane="random" />
	<vehicle id="v43" depart="130" route="r230" type="CarDefault" departLane="random" />
	<vehicle id="v243" depart="130" route="r231" type="CarDefault" departLane="random" />
	<vehicle id="v44" depart="133" route="r230" type="CarDefault" departLane="random" />
	<vehicle id="v244" depart="133" route="r231" type="CarDefault" departLane="random" />
	<vehicle id="v45" depart="136" route="r230" type="CarDefault" departLane="random" />
	<vehicle id="v245" depart="136" route="r231" type="CarDefault" departLane="random" />
	<vehicle id="v46" depart="139" route="r230" type="CarDefault" departLane="random" />
	<vehicle id="v246" depart="139" route="r231" type="CarDefault" departLane="random" />
	<vehicle id="v47" depart="142" route="r230" type="CarDefault" departLane="random" />
	<vehicle id="v247" depart="142" route="r231" type="CarDefault" departLane="random" />
	<vehicle id="v48" depart="145" route="r230" type="CarDefault" departLane="random" />
	<vehicle id="v248" depart="145" route="r231" type="CarDefault" departLane="random" />
	<vehicle id="v49" depart="148" route="r230" type="CarDefault" departLane="random" />
	<vehicle id="v249" depart="148" route="r231" type="CarDefault" departLane="random" />
	<vehicle id="v50" depart="151" route="r230" type="CarDefault" departLane="random" />
	<vehicle id="v250" depart="151" route="r231" type="CarDefault" departLane="random" />
	<vehicle id="v51" depart="154" route="r230" type="CarDefault" departLane="random" />
	<vehicle id="v251" depart="154" route="r231" type="CarDefault" departLane="random" />
	<vehicle id="v52" depart="157" route="r230" type="CarDefault" departLane="random" />
	<vehicle id="v252" depart="157" route="r231" type="CarDefault" departLane="random" />
	<vehicle id="v53" depart="160" route="r230" type="CarDefault" departLane="random" />
	<vehicle id="v253" depart="160" route="r231" type="CarDefault" departLane="random" />
	<vehicle id="v54" depart="163" route="r230" type="CarDefault" departLane="random" />
	<vehicle id="v254" depart="163" route="r231" type="CarDefault" departLane="random" />
	<vehicle id="v55" depart="166" route="r230" type="CarDefault" departLane="random" />
	<vehicle id="v255" depart="166" route="r231" type="CarDefault" departLane="random" />
	<vehicle id="v56" depart="169" route="r230" type="CarDefault" departLane="random" />
	<vehicle id="v256" depart="169" route="r231" type="CarDefault" departLane="random" />
	<vehicle id="v57" depart="172" route="r230" type="CarDefault" departLane="random" />
	<vehicle id="v257" depart="172" route="r231" type="CarDefault" departLane="random" />
	<vehicle id="v58" depart="175" route="r230" type="CarDefault" departLane="random" />
	<vehicle id="v258" depart="175" route="r231" type="CarDefault" departLane="random" />
	<vehicle id="v59" depart="178" route="r230" type="CarDefault" departLane="random" />
	<vehicle id="v259" depart="178" route="r231" type="CarDefault" departLane="random" />
	<vehicle id="v60" depart="181" route="r230" type="CarDefault" departLane="random" />
	<vehicle id="v260" depart="181" route="r231" type="CarDefault" departLane="random" />
	<vehicle id="v61" depart="184" route="r230" type="CarDefault" departLane="random" />
	<vehicle id="v261" depart="184" route="r231" type="CarDefault" departLane="random" />
	<vehicle id="v62" depart="187" route="r230" type="CarDefault" departLane="random" />
	<vehicle id="v262" depart="187" route="r231" type="CarDefault" departLane="random" />
	<vehicle id="v63" depart="190" route="r230" type="CarDefault" departLane="random" />
	<vehicle id="v263" depart="190" route="r231" type="CarDefault" departLane="random" />
	<vehicle id="v64" depart="193" route="r230" type="CarDefault" departLane="random" />
	<vehicle id="v264" depart="193" route="r231" type="CarDefault" departLane="random" />
	<vehicle id="v65" depart="196" route="r230" type="CarDefault" departLane="random" />
	<vehicle id="v265" depart="196" route="r231" type="CarDefault" departLane="random" />
	<vehicle id="v66" depart="199" route="r230" type="CarDefault" departLane="random" />
	<vehicle id="v266" depart="199" route="r231" type="CarDefault" departLane="random" />
	<vehicle id="v67" depart="202" route="r230" type="CarDefault" departLane="random" />
	<vehicle id="v267" depart="202" route="r231" type="CarDefault" departLane="random" />
	<vehicle id="v68" depart="205" route="r230" type="CarDefault" departLane="random" />
	<vehicle id="v268" depart="205" route="r231" type="CarDefault" departLane="random" />
	<vehicle id="v69" depart="208" route="r230" type="CarDefault" departLane="random" />
	<vehicle id="v269" depart="208" route="r231" type="CarDefault" departLane="random" />
	<vehicle id="v70" depart="211" route="r230" type="CarDefault" departLane="random" />
	<vehicle id="v270" depart="211" route="r231" type="CarDefault" departLane="random" />
	<vehicle id="v71" depart="214" route="r230" type="CarDefault" departLane="random" />
	<vehicle id="v271" depart="214" route="r231" type="CarDefault" departLane="random" />
	<vehicle id="v72" depart="217" route="r230" type="CarDefault" departLane="random" />
	<vehicle id="v272" depart="217" route="r231" type="CarDefault" departLane="random" />
	<vehicle id="v73" depart="220" route="r230" type="CarDefault" departLane="random" />
	<vehicle id="v273" depart="220" route="r231" type="CarDefault" departLane="random" />
	<vehicle id="v74" depart="223" route="r230" type="CarDefault" departLane="random" />
	<vehicle id="v274" depart="223" route="r231" type="CarDefault" departLane="random" />
	<vehicle id="v75" depart="226" route="r230" type="CarDefault" departLane="random" />
	<vehicle id="v275" depart="226" route="r231" type="CarDefault" departLane="random" />
	<vehicle id="v76" depart="229" route="r230" type="CarDefault" departLane="random" />
	<vehicle id="v276" depart="229" route="r231" type="CarDefault" departLane="random" />
	<vehicle id="v77" depart="232" route="r230" type="CarDefault" departLane="random" />
	<vehicle id="v277" depart="232" route="r231" type="CarDefault" departLane="random" />
	<vehicle id="v78" depart="235" route="r230" type="CarDefault" departLane="random" />
	<vehicle id="v278" depart="235" route="r231" type="CarDefault" departLane="random" />
	<vehicle id="v79" depart="238" route="r230" type="CarDefault" departLane="random" />
	<vehicle id="v279" depart="238" route="r231" type="CarDefault" departLane="random" />
	<vehicle id="v80" depart="241" route="r230" type="CarDefault" departLane="random" />
	<vehicle id="v280" depart="241" route="r231" type="CarDefault" departLane="random" />
	<vehicle id="v81" depart="244" route="r230" type="CarDefault" departLane="random" />
	<vehicle id="v281" depart="244" route="r231" type="CarDefault" departLane="random" />
	<vehicle id="v82" depart="247" route="r230" type="CarDefault" departLane="random" />
	<vehicle id="v282" depart="247" route="r231" type="CarDefault" departLane="random" />
	<vehicle id="v83" depart="250" route="r230" type="CarDefault" departLane="random" />
	<vehicle id="v283" depart="250" route="r231" type="CarDefault" departLane="random" />
	<vehicle id="v84" depart="253" route="r230" type="CarDefault" departLane="random" />
	<vehicle id="v284" depart="253" route="r231" type="CarDefault" departLane="random" />
	<vehicle id="v85" depart="256" route="r230" type="CarDefault" departLane="random" />
	<vehicle id="v285" depart="256" route="r231" type="CarDefault" departLane="random" />
	<vehicle id="v86" depart="259" route="r230" type="CarDefault" departLane="random" />
	<vehicle id="v286" depart="259" route="r231" type="CarDefault" departLane="random" />
	<vehicle id="v87" depart="262" route="r230" type="CarDefault" departLane="random" />
	<vehicle id="v287" depart="262" route="r231" type="CarDefault" departLane="random" />
	<vehicle id="v88" depart="265" route="r230" type="CarDefault" departLane="random" />
	<vehicle id="v288" depart="265" route="r231" type="CarDefault" departLane="random" />
	<vehicle id="v89" depart="268" route="r230" type="CarDefault" departLane="random" />
	<vehicle id="v289" depart="268" route="r231" type="CarDefault" departLane="random" />
	<vehicle id="v90" depart="271" route="r230" type="CarDefault" departLane="random" />
	<vehicle id="v290" depart="271" route="r231" type="CarDefault" departLane="random" />
	<vehicle id="v91" depart="274" route="r230" type="CarDefault" departLane="random" />
	<vehicle id="v291" depart="274" route="r231" type="CarDefault" departLane="random" />
	<vehicle id="v92" depart="277" route="r230" type="CarDefault" departLane="random" />
	<vehicle id="v292" depart="277" route="r231" type="CarDefault" departLane="random" />
	<vehicle id="v93" depart="280" route="r230" type="CarDefault" departLane="random" />
	<vehicle id="v293" depart="280" route="r231" type="CarDefault" departLane="random" />
	<vehicle id="v94" depart="283" route="r230" type="CarDefault" departLane="random" />
	<vehicle id="v294" depart="283" route="r231" type="CarDefault" departLane="random" />
	<vehicle id="v95" depart="286" route="r230" type="CarDefault" departLane="random" />
	<vehicle id="v295" depart="286" route="r231" type="CarDefault" departLane="random" />
	<vehicle id="v96" depart="289" route="r230" type="CarDefault" departLane="random" />
	<vehicle id="v296" depart="289" route="r231" type="CarDefault" departLane="random" />
	<vehicle id="v97" depart="292" route="r230" type="CarDefault" departLane="random" />
	<vehicle id="v297" depart="292" route="r231" type="CarDefault" departLane="random" />
	<vehicle id="v98" depart="295" route="r230" type="CarDefault" departLane="random" />
	<vehicle id="v298" depart="295" route="r231" type="CarDefault" departLane="random" />
	<vehicle id="v99" depart="298" route="r230" type="CarDefault" departLane="random" />
	<vehicle id="v299" depart="298" route="r231" type="CarDefault" departLane="random" />
	<vehicle id="v100" depart="302" route="r230" type="CarDefault" departLane="random" />
	<vehicle id="v300" depart="302" route="r231" type="CarDefault" departLane="random" />
	<vehicle id="v101" depart="305" route="r230" type="CarDefault" departLane="random" />
	<vehicle id="v301" depart="305" route="r231" type="CarDefault" departLane="random" />
	<vehicle id="v102" depart="308" route="r230" type="CarDefault" departLane="random" />
	<vehicle id="v302" depart="308" route="r231" type="CarDefault" departLane="random" />
	<vehicle id="v103" depart="311" route="r230" type="CarDefault" departLane="random" />
	<vehicle id="v303" depart="311" route="r231" type="CarDefault" departLane="random" />
	<vehicle id="v104" depart="314" route="r230" type="CarDefault" departLane="random" />
	<vehicle id="v304" depart="314" route="r231" type="CarDefault" departLane="random" />
	<vehicle id="v105" depart="317" route="r230" type="CarDefault" departLane="random" />
	<vehicle id="v305" depart="317" route="r231" type="CarDefault" departLane="random" />
	<vehicle id="v106" depart="320" route="r230" type="CarDefault" departLane="random" />
	<vehicle id="v306" depart="320" route="r231" type="CarDefault" departLane="random" />
	<vehicle id="v107" depart="323" route="r230" type="CarDefault" departLane="random" />
	<vehicle id="v307" depart="323" route="r231" type="CarDefault" departLane="random" />
	<vehicle id="v108" depart="326" route="r230" type="CarDefault" departLane="random" />
	<vehicle id="v308" depart="326" route="r231" type="CarDefault" departLane="random" />
	<vehicle id="v109" depart="329" route="r230" type="CarDefault" departLane="random" />
	<vehicle id="v309" depart="329" route="r231" type="CarDefault" departLane="random" />
	<vehicle id="v110" depart="332" route="r230" type="CarDefault" departLane="random" />
	<vehicle id="v310" depart="332" route="r231" type="CarDefault" departLane="random" />
	<vehicle id="v111" depart="335" route="r230" type="CarDefault" departLane="random" />
	<vehicle id="v311" depart="335" route="r231" type="CarDefault" departLane="random" />
	<vehicle id="v112" depart="338" route="r230" type="CarDefault" departLane="random" />
	<vehicle id="v312" depart="338" route="r231" type="CarDefault" departLane="random" />
	<vehicle id="v113" depart="341" route="r230" type="CarDefault" departLane="random" />
	<vehicle id="v313" depart="341" route="r231" type="CarDefault" departLane="random" />
	<vehicle id="v114" depart="344" route="r230" type="CarDefault" departLane="random" />
	<vehicle id="v314" depart="344" route="r231" type="CarDefault" departLane="random" />
	<vehicle id="v115" depart="347" route="r230" type="CarDefault" departLane="random" />
	<vehicle id="v315" depart="347" route="r231" type="CarDefault" departLane="random" />
	<vehicle id="v116" depart="350" route="r230" type="CarDefault" departLane="random" />
	<vehicle id="v316" depart="350" route="r231" type="CarDefault" departLane="random" />
	<vehicle id="v117" depart="353" route="r230" type="CarDefault" departLane="random" />
	<vehicle id="v317" depart="353" route="r231" type="CarDefault" departLane="random" />
	<vehicle id="v118" depart="356" route="r230" type="CarDefault" departLane="random" />
	<vehicle id="v318" depart="356" route="r231" type="CarDefault" departLane="random" />
	<vehicle id="v119" depart="359" route="r230" type="CarDefault" departLane="random" />
	<vehicle id="v319" depart="359" route="r231" type="CarDefault" departLane="random" />
	<vehicle id="v120" depart="362" route="r230" type="CarDefault" departLane="random" />
	<vehicle id="v320" depart="362" route="r231" type="CarDefault" departLane="random" />
	<vehicle id="v121" depart="365" route="r230" type="CarDefault" departLane="random" />
	<vehicle id="v321" depart="365" route="r231" type="CarDefault" departLane="random" />
	<vehicle id="v122" depart="368" route="r230" type="CarDefault" departLane="random" />
	<vehicle id="v322" depart="368" route="r231" type="CarDefault" departLane="random" />
	<vehicle id="v123" depart="371" route="r230" type="CarDefault" departLane="random" />
	<vehicle id="v323" depart="371" route="r231" type="CarDefault" departLane="random" />
	<vehicle id="v124" depart="374" route="r230" type="CarDefault" departLane="random" />
	<vehicle id="v324" depart="374" route="r231" type="CarDefault" departLane="random" />
	<vehicle id="v125" depart="377" route="r230" type="CarDefault" departLane="random" />
	<vehicle id="v325" depart="377" route="r231" type="CarDefault" departLane="random" />
	<vehicle id="v126" depart="380" route="r230" type="CarDefault" departLane="random" />
	<vehicle id="v326" depart="380" route="r231" type="CarDefault" departLane="random" />
	<vehicle id="v127" depart="383" route="r230" type="CarDefault" departLane="random" />
	<vehicle id="v327" depart="383" route="r231" type="CarDefault" departLane="random" />
	<vehicle id="v128" depart="386" route="r230" type="CarDefault" departLane="random" />
	<vehicle id="v328" depart="386" route="r231" type="CarDefault" departLane="random" />
	<vehicle id="v129" depart="389" route="r230" type="CarDefault" departLane="random" />
	<vehicle id="v329" depart="389" route="r231" type="CarDefault" departLane="random" />
	<vehicle id="v130" depart="392" route="r230" type="CarDefault" departLane="random" />
	<vehicle id="v330" depart="392" route="r231" type="CarDefault" departLane="random" />
	<vehicle id="v131" depart="395" route="r230" type="CarDefault" departLane="random" />
	<vehicle id="v331" depart="395" route="r231" type="CarDefault" departLane="random" />
	<vehicle id="v132" depart="398" route="r230" type="CarDefault" departLane="random" />
	<vehicle id="v332" depart="398" route="r231" type="CarDefault" departLane="random" />
	<vehicle id="v133" depart="401" route="r230" type="CarDefault" departLane="random" />
	<vehicle id="v333" depart="401" route="r231" type="CarDefault" departLane="random" />
	<vehicle id="v134" depart="404" route="r230" type="CarDefault" departLane="random" />
	<vehicle id="v334" depart="404" route="r231" type="CarDefault" departLane="random" />
	<vehicle id="v135" depart="407" route="r230" type="CarDefault" departLane="random" />
	<vehicle id="v335" depart="407" route="r231" type="CarDefault" departLane="random" />
	<vehicle id="v136" depart="410" route="r230" type="CarDefault" departLane="random" />
	<vehicle id="v336" depart="410" route="r231" type="CarDefault" departLane="random" />
	<vehicle id="v137" depart="413" route="r230" type="CarDefault" departLane="random" />
	<vehicle id="v337" depart="413" route="r231" type="CarDefault" departLane="random" />
	<vehicle id="v138" depart="416" route="r230" type="CarDefault" departLane="random" />
	<vehicle id="v338" depart="416" route="r231" type="CarDefault" departLane="random" />
	<vehicle id="v139" depart="419" route="r230" type="CarDefault" departLane="random" />
	<vehicle id="v339" depart="419" route="r231" type="CarDefault" departLane="random" />
	<vehicle id="v140" depart="422" route="r230" type="CarDefault" departLane="random" />
	<vehicle id="v340" depart="422" route="r231" type="CarDefault" departLane="random" />
	<vehicle id="v141" depart="425" route="r230" type="CarDefault" departLane="random" />
	<vehicle id="v341" depart="425" route="r231" type="CarDefault" departLane="random" />
	<vehicle id="v142" depart="428" route="r230" type="CarDefault" departLane="random" />
	<vehicle id="v342" depart="428" route="r231" type="CarDefault" departLane="random" />
	<vehicle id="v143" depart="431" route="r230" type="CarDefault" departLane="random" />
	<vehicle id="v343" depart="431" route="r231" type="CarDefault" departLane="random" />
	<vehicle id="v144" depart="434" route="r230" type="CarDefault" departLane="random" />
	<vehicle id="v344" depart="434" route="r231" type="CarDefault" departLane="random" />
	<vehicle id="v145" depart="437" route="r230" type="CarDefault" departLane="random" />
	<vehicle id="v345" depart="437" route="r231" type="CarDefault" departLane="random" />
	<vehicle id="v146" depart="440" route="r230" type="CarDefault" departLane="random" />
	<vehicle id="v346" depart="440" route="r231" type="CarDefault" departLane="random" />
	<vehicle id="v147" depart="443" route="r230" type="CarDefault" departLane="random" />
	<vehicle id="v347" depart="443" route="r231" type="CarDefault" departLane="random" />
	<vehicle id="v148" depart="446" route="r230" type="CarDefault" departLane="random" />
	<vehicle id="v348" depart="446" route="r231" type="CarDefault" departLane="random" />
	<vehicle id="v149" depart="449" route="r230" type="CarDefault" departLane="random" />
	<vehicle id="v349" depart="449" route="r231" type="CarDefault" departLane="random" />
	<vehicle id="v150" depart="452" route="r230" type="CarDefault" departLane="random" />
	<vehicle id="v350" depart="452" route="r231" type="CarDefault" departLane="random" />
	<vehicle id="v151" depart="455" route="r230" type="CarDefault" departLane="random" />
	<vehicle id="v351" depart="455" route="r231" type="CarDefault" departLane="random" />
	<vehicle id="v152" depart="458" route="r230" type="CarDefault" departLane="random" />
	<vehicle id="v352" depart="458" route="r231" type="CarDefault" departLane="random" />
	<vehicle id="v153" depart="461" route="r230" type="CarDefault" departLane="random" />
	<vehicle id="v353" depart="461" route="r231" type="CarDefault" departLane="random" />
	<vehicle id="v154" depart="464" route="r230" type="CarDefault" departLane="random" />
	<vehicle id="v354" depart="464" route="r231" type="CarDefault" departLane="random" />
	<vehicle id="v155" depart="467" route="r230" type="CarDefault" departLane="random" />
	<vehicle id="v355" depart="467" route="r231" type="CarDefault" departLane="random" />
	<vehicle id="v156" depart="470" route="r230" type="CarDefault" departLane="random" />
	<vehicle id="v356" depart="470" route="r231" type="CarDefault" departLane="random" />
	<vehicle id="v157" depart="473" route="r230" type="CarDefault" departLane="random" />
	<vehicle id="v357" depart="473" route="r231" type="CarDefault" departLane="random" />
	<vehicle id="v158" depart="476" route="r230" type="CarDefault" departLane="random" />
	<vehicle id="v358" depart="476" route="r231" type="CarDefault" departLane="random" />
	<vehicle id="v159" depart="479" route="r230" type="CarDefault" departLane="random" />
	<vehicle id="v359" depart="479" route="r231" type="CarDefault" departLane="random" />
	<vehicle id="v160" depart="482" route="r230" type="CarDefault" departLane="random" />
	<vehicle id="v360" depart="482" route="r231" type="CarDefault" departLane="random" />
	<vehicle id="v161" depart="485" route="r230" type="CarDefault" departLane="random" />
	<vehicle id="v361" depart="485" route="r231" type="CarDefault" departLane="random" />
	<vehicle id="v162" depart="488" route="r230" type="CarDefault" departLane="random" />
	<vehicle id="v362" depart="488" route="r231" type="CarDefault" departLane="random" />
	<vehicle id="v163" depart="491" route="r230" type="CarDefault" departLane="random" />
	<vehicle id="v363" depart="491" route="r231" type="CarDefault" departLane="random" />
	<vehicle id="v164" depart="494" route="r230" type="CarDefault" departLane="random" />
	<vehicle id="v364" depart="494" route="r231" type="CarDefault" departLane="random" />
	<vehicle id="v165" depart="497" route="r230" type="CarDefault" departLane="random" />
	<vehicle id="v365" depart="497" route="r231" type="CarDefault" departLane="random" />
	<vehicle id="v166" depart="501" route="r230" type="CarDefault" departLane="random" />
	<vehicle id="v366" depart="501" route="r231" type="CarDefault" departLane="random" />
	<vehicle id="v167" depart="504" route="r230" type="CarDefault" departLane="random" />
	<vehicle id="v367" depart="504" route="r231" type="CarDefault" departLane="random" />
	<vehicle id="v168" depart="507" route="r230" type="CarDefault" departLane="random" />
	<vehicle id="v368" depart="507" route="r231" type="CarDefault" departLane="random" />
	<vehicle id="v169" depart="510" route="r230" type="CarDefault" departLane="random" />
	<vehicle id="v369" depart="510" route="r231" type="CarDefault" departLane="random" />
	<vehicle id="v170" depart="513" route="r230" type="CarDefault" departLane="random" />
	<vehicle id="v370" depart="513" route="r231" type="CarDefault" departLane="random" />