<?xml version='1.0' encoding='utf-8'?>
<routes>
	<vType accel="3.0" decel="6.0" id="CarDefault" length="5.0" minGap="2.5" maxSpeed="50.0" sigma="0.5" />
	<route id="sr230" edges="113 18 35 64 110" fromJunction="13" toJunction="9" />
	<route id="sr231" edges="17 175 140 112 114" fromJunction="9" toJunction="14" />
	<vehicle id="v0" depart="0.0" route="sr230" type="CarDefault" departLane="random" />
	<vehicle id="v10" depart="0.0" route="sr231" type="CarDefault" departLane="random" />
	<vehicle id="v1" depart="13.33" route="sr230" type="CarDefault" departLane="random" />
	<vehicle id="v11" depart="13.33" route="sr231" type="CarDefault" departLane="random" />
	<vehicle id="v2" depart="26.67" route="sr230" type="CarDefault" departLane="random" />
	<vehicle id="v12" depart="26.67" route="sr231" type="CarDefault" departLane="random" />
	<vehicle id="v3" depart="40.0" route="sr230" type="CarDefault" departLane="random" />
	<vehicle id="v13" depart="40.0" route="sr231" type="CarDefault" departLane="random" />
	<vehicle id="v4" depart="53.33" route="sr230" type="CarDefault" departLane="random" />
	<vehicle id="v14" depart="53.33" route="sr231" type="CarDefault" departLane="random" />
	<vehicle id="v5" depart="66.67" route="sr230" type="CarDefault" departLane="random" />
	<vehicle id="v15" depart="66.67" route="sr231" type="CarDefault" departLane="random" />
	<vehicle id="v6" depart="80.0" route="sr230" type="CarDefault" departLane="random" />
	<vehicle id="v16" depart="80.0" route="sr231" type="CarDefault" departLane="random" />
	<vehicle id="v7" depart="93.33" route="sr230" type="CarDefault" departLane="random" />
	<vehicle id="v17" depart="93.33" route="sr231" type="CarDefault" departLane="random" />
	<vehicle id="v8" depart="106.67" route="sr230" type="CarDefault" departLane="random" />
	<vehicle id="v18" depart="106.67" route="sr231" type="CarDefault" departLane="random" />
	<vehicle id="v9" depart="120.0" route="sr230" type="CarDefault" departLane="random" />
	<vehicle id="v19" depart="120.0" route="sr231" type="CarDefault" departLane="random" />
</routes>