<?xml version="1.0" encoding="UTF-8"?>

<!-- generated on 2022-10-09 18:16:32 by Eclipse SUMO netconvert Version 1.12.0
<configuration xmlns:xsi="http://www.w3.org/2001/XMLSchema-instance" xsi:noNamespaceSchemaLocation="http://sumo.dlr.de/xsd/netconvertConfiguration.xsd">

    <input>
        <sumo-net-file value="/home/svadlmat/UTC/utc/data/maps/sumo/Sydney.net.xml"/>
    </input>

    <output>
        <output-file value="/home/svadlmat/UTC/utc/data/scenarios/18_16_28_sydney/maps/networks/18_16_28_sydney_similarity_minimal_similarity_sg.net.xml"/>
    </output>

    <processing>
        <geometry.min-radius.fix.railways value="false"/>
        <geometry.max-grade.fix value="false"/>
        <offset.disable-normalization value="true"/>
        <lefthand value="false"/>
    </processing>

    <edge_removal>
        <keep-edges.explicit value="709,245,107,866,886,83,1021,428,1022,283,541,527,550,305,237,627,828,587,127,487,51,110,423,739,315,1018,919,535,920,16,341,424,1019,546,891,791,1003,74,1004,549,686,1005,14,403,869,232,18,17,523,551,130,332,346,511,706,116,405,415,267,1002,268,1006,400,552,829,285,375,967,427,426,794,287,710,515,921,513,1020,695,827,831,269,483,968,126,102,20,859,75,766,957,958,19,101,832,890,263,826,399,867,884,404,897,131,508,97,425,960,988,548,563,792,502,628,333,878,111,129,331,9,712,526,86,525,512,746,898,482,286,524,585,15,284,894,233,922,209,62,1007,342,547,885,288,769,92,507,969,774,82,10"/>
    </edge_removal>

    <junctions>
        <no-turnarounds value="true"/>
        <junctions.corner-detail value="5"/>
        <junctions.limit-turn-speed value="5.5"/>
        <rectangular-lane-cut value="false"/>
    </junctions>

    <pedestrian>
        <walkingareas value="false"/>
    </pedestrian>

    <report>
        <aggregate-warnings value="5"/>
    </report>

</configuration>
-->

<net version="1.9" junctionCornerDetail="5" limitTurnSpeed="5.50" xmlns:xsi="http://www.w3.org/2001/XMLSchema-instance" xsi:noNamespaceSchemaLocation="http://sumo.dlr.de/xsd/net_file.xsd">

    <location netOffset="-336586.08,3754670.31" convBoundary="75.04,12.34,1990.00,2196.77" origBoundary="151.232525,-33.920080,151.266296,-33.899237" projParameter="+proj=utm +zone=56 +ellps=WGS84 +datum=WGS84 +units=m +no_defs"/>

    <type id="highway.bridleway" priority="1" numLanes="1" speed="2.78" allow="pedestrian" oneway="1" width="2.00"/>
    <type id="highway.bus_guideway" priority="1" numLanes="1" speed="27.78" allow="bus" oneway="1"/>
    <type id="highway.cycleway" priority="1" numLanes="1" speed="8.33" allow="bicycle" oneway="0" width="1.00"/>
    <type id="highway.footway" priority="1" numLanes="1" speed="2.78" allow="pedestrian" oneway="1" width="2.00"/>
    <type id="highway.ford" priority="1" numLanes="1" speed="2.78" allow="army" oneway="0"/>
    <type id="highway.living_street" priority="2" numLanes="1" speed="2.78" disallow="tram rail_urban rail rail_electric rail_fast ship" oneway="0"/>
    <type id="highway.motorway" priority="14" numLanes="2" speed="39.44" allow="private emergency authority army vip passenger hov taxi bus coach delivery truck trailer motorcycle evehicle custom1 custom2" oneway="1"/>
    <type id="highway.motorway_link" priority="9" numLanes="1" speed="22.22" allow="private emergency authority army vip passenger hov taxi bus coach delivery truck trailer motorcycle evehicle custom1 custom2" oneway="1"/>
    <type id="highway.path" priority="1" numLanes="1" speed="2.78" allow="pedestrian bicycle" oneway="0" width="2.00"/>
    <type id="highway.pedestrian" priority="1" numLanes="1" speed="2.78" allow="pedestrian" oneway="1" width="2.00"/>
    <type id="highway.primary" priority="12" numLanes="2" speed="27.78" disallow="tram rail_urban rail rail_electric rail_fast ship" oneway="0"/>
    <type id="highway.primary_link" priority="7" numLanes="1" speed="22.22" disallow="tram rail_urban rail rail_electric rail_fast ship" oneway="0"/>
    <type id="highway.raceway" priority="15" numLanes="2" speed="83.33" allow="vip" oneway="0"/>
    <type id="highway.residential" priority="3" numLanes="1" speed="13.89" disallow="tram rail_urban rail rail_electric rail_fast ship" oneway="0"/>
    <type id="highway.secondary" priority="11" numLanes="1" speed="27.78" disallow="tram rail_urban rail rail_electric rail_fast ship" oneway="0"/>
    <type id="highway.secondary_link" priority="6" numLanes="1" speed="22.22" disallow="tram rail_urban rail rail_electric rail_fast ship" oneway="0"/>
    <type id="highway.service" priority="1" numLanes="1" speed="5.56" allow="pedestrian delivery bicycle" oneway="0"/>
    <type id="highway.stairs" priority="1" numLanes="1" speed="1.39" allow="pedestrian" oneway="1" width="2.00"/>
    <type id="highway.step" priority="1" numLanes="1" speed="1.39" allow="pedestrian" oneway="1" width="2.00"/>
    <type id="highway.steps" priority="1" numLanes="1" speed="1.39" allow="pedestrian" oneway="1" width="2.00"/>
    <type id="highway.tertiary" priority="10" numLanes="1" speed="22.22" disallow="tram rail_urban rail rail_electric rail_fast ship" oneway="0"/>
    <type id="highway.tertiary_link" priority="5" numLanes="1" speed="22.22" disallow="tram rail_urban rail rail_electric rail_fast ship" oneway="0"/>
    <type id="highway.track" priority="1" numLanes="1" speed="5.56" allow="pedestrian motorcycle moped bicycle" oneway="0"/>
    <type id="highway.trunk" priority="13" numLanes="2" speed="27.78" disallow="pedestrian bicycle tram rail_urban rail rail_electric rail_fast ship" oneway="0"/>
    <type id="highway.trunk_link" priority="8" numLanes="1" speed="22.22" disallow="pedestrian bicycle tram rail_urban rail rail_electric rail_fast ship" oneway="0"/>
    <type id="highway.unclassified" priority="4" numLanes="1" speed="13.89" disallow="tram rail_urban rail rail_electric rail_fast ship" oneway="0"/>
    <type id="highway.unsurfaced" priority="1" numLanes="1" speed="8.33" disallow="tram rail_urban rail rail_electric rail_fast ship" oneway="0"/>
    <type id="railway.highspeed" priority="21" numLanes="1" speed="69.44" allow="rail_fast" oneway="1"/>
    <type id="railway.light_rail" priority="19" numLanes="1" speed="27.78" allow="rail_urban" oneway="1"/>
    <type id="railway.preserved" priority="16" numLanes="1" speed="27.78" allow="rail" oneway="1"/>
    <type id="railway.rail" priority="20" numLanes="1" speed="44.44" allow="rail" oneway="1"/>
    <type id="railway.subway" priority="18" numLanes="1" speed="27.78" allow="rail_urban" oneway="1"/>
    <type id="railway.tram" priority="17" numLanes="1" speed="13.89" allow="tram" oneway="1"/>

    <edge id=":117_0" function="internal">
        <lane id=":117_0_0" index="0" disallow="tram rail_urban rail rail_electric rail_fast ship" speed="3.90" length="2.70" shape="1470.09,635.03 1470.84,634.97 1471.41,635.17 1471.81,635.62 1472.03,636.33"/>
    </edge>
    <edge id=":124_0" function="internal">
        <lane id=":124_0_0" index="0" disallow="tram rail_urban rail rail_electric rail_fast ship" speed="27.78" length="0.30" shape="1387.74,673.85 1387.99,673.69"/>
    </edge>
    <edge id=":129_0" function="internal">
        <lane id=":129_0_0" index="0" disallow="tram rail_urban rail rail_electric rail_fast ship" speed="22.22" length="0.10" shape="1918.41,1529.81 1918.47,1529.86"/>
    </edge>
    <edge id=":132_0" function="internal">
        <lane id=":132_0_0" index="0" disallow="tram rail_urban rail rail_electric rail_fast ship" speed="27.78" length="8.81" shape="1772.31,1111.59 1772.20,1114.10 1771.35,1115.79 1770.50,1117.48 1770.39,1119.99"/>
    </edge>
    <edge id=":135_0" function="internal">
        <lane id=":135_0_0" index="0" disallow="tram rail_urban rail rail_electric rail_fast ship" speed="3.90" length="2.58" shape="1838.22,1200.37 1838.93,1200.36 1839.47,1200.57 1839.85,1201.02 1840.06,1201.69"/>
    </edge>
    <edge id=":136_0" function="internal">
        <lane id=":136_0_0" index="0" disallow="tram rail_urban rail rail_electric rail_fast ship" speed="22.23" length="8.26" shape="1765.00,1086.42 1765.98,1088.71 1767.35,1090.01 1768.68,1091.31 1769.53,1093.63"/>
        <lane id=":136_0_1" index="1" disallow="tram rail_urban rail rail_electric rail_fast ship" speed="22.23" length="8.26" shape="1765.00,1086.42 1766.37,1094.10"/>
    </edge>
    <edge id=":137_0" function="internal">
        <lane id=":137_0_0" index="0" disallow="tram rail_urban rail rail_electric rail_fast ship" speed="13.89" length="0.30" shape="1722.56,1443.62 1722.85,1443.62"/>
    </edge>
    <edge id=":139_0" function="internal">
        <lane id=":139_0_0" index="0" disallow="tram rail_urban rail rail_electric rail_fast ship" speed="22.22" length="0.18" shape="1980.25,1672.46 1980.28,1672.64"/>
    </edge>
    <edge id=":140_0" function="internal">
        <lane id=":140_0_0" index="0" disallow="tram rail_urban rail rail_electric rail_fast ship" speed="13.89" length="0.10" shape="1525.29,1636.53 1525.29,1636.53"/>
    </edge>
    <edge id=":145_0" function="internal">
        <lane id=":145_0_0" index="0" disallow="tram rail_urban rail rail_electric rail_fast ship" speed="3.90" length="2.59" shape="1867.53,1368.59 1867.54,1369.30 1867.33,1369.84 1866.88,1370.22 1866.20,1370.43"/>
    </edge>
    <edge id=":148_0" function="internal">
        <lane id=":148_0_0" index="0" disallow="tram rail_urban rail rail_electric rail_fast ship" speed="13.89" length="8.76" shape="1764.78,1442.30 1767.22,1441.73 1768.73,1440.59 1770.25,1439.49 1772.69,1439.02"/>
    </edge>
    <edge id=":156_0" function="internal">
        <lane id=":156_0_0" index="0" disallow="tram rail_urban rail rail_electric rail_fast ship" speed="13.89" length="0.10" shape="797.08,1698.55 797.08,1698.55"/>
    </edge>
    <edge id=":158_0" function="internal">
        <lane id=":158_0_0" index="0" disallow="tram rail_urban rail rail_electric rail_fast ship" speed="13.89" length="0.10" shape="200.15,1454.86 200.15,1454.86"/>
    </edge>
    <edge id=":160_0" function="internal">
        <lane id=":160_0_0" index="0" disallow="tram rail_urban rail rail_electric rail_fast ship" speed="6.08" length="7.60" shape="845.37,1161.08 843.30,1161.06 841.71,1160.39 840.61,1159.07 839.99,1157.09"/>
    </edge>
    <edge id=":160_1" function="internal">
        <lane id=":160_1_0" index="0" disallow="tram rail_urban rail rail_electric rail_fast ship" speed="3.65" length="4.67" shape="845.37,1161.08 844.08,1160.45 843.57,1159.71 843.86,1158.86 844.95,1157.91"/>
    </edge>
    <edge id=":160_2" function="internal">
        <lane id=":160_2_0" index="0" disallow="tram rail_urban rail rail_electric rail_fast ship" speed="3.91" length="2.53" shape="843.15,1156.58 843.36,1157.24 843.73,1157.68 844.26,1157.90 844.95,1157.91"/>
    </edge>
    <edge id=":160_3" function="internal">
        <lane id=":160_3_0" index="0" disallow="tram rail_urban rail rail_electric rail_fast ship" speed="3.65" length="4.67" shape="843.15,1156.58 842.55,1157.89 841.83,1158.41 840.98,1158.14 839.99,1157.09"/>
    </edge>
    <edge id=":165_0" function="internal">
        <lane id=":165_0_0" index="0" disallow="tram rail_urban rail rail_electric rail_fast ship" speed="13.89" length="0.31" shape="877.64,1156.74 877.33,1156.79"/>
    </edge>
    <edge id=":165_1" function="internal">
        <lane id=":165_1_0" index="0" disallow="tram rail_urban rail rail_electric rail_fast ship" speed="3.65" length="2.34" shape="877.64,1156.74 876.33,1156.12 875.82,1155.39"/>
    </edge>
    <edge id=":165_4" function="internal">
        <lane id=":165_4_0" index="0" disallow="tram rail_urban rail rail_electric rail_fast ship" speed="3.65" length="2.34" shape="875.82,1155.39 876.10,1154.54 877.18,1153.58"/>
    </edge>
    <edge id=":165_2" function="internal">
        <lane id=":165_2_0" index="0" disallow="tram rail_urban rail rail_electric rail_fast ship" speed="13.89" length="0.28" shape="876.90,1153.61 877.18,1153.58"/>
    </edge>
    <edge id=":165_3" function="internal">
        <lane id=":165_3_0" index="0" disallow="tram rail_urban rail rail_electric rail_fast ship" speed="3.65" length="2.34" shape="876.90,1153.61 878.20,1154.25 878.70,1154.99"/>
    </edge>
    <edge id=":165_5" function="internal">
        <lane id=":165_5_0" index="0" disallow="tram rail_urban rail rail_electric rail_fast ship" speed="3.65" length="2.34" shape="878.70,1154.99 878.41,1155.83 877.33,1156.79"/>
    </edge>
    <edge id=":168_0" function="internal">
        <lane id=":168_0_0" index="0" disallow="tram rail_urban rail rail_electric rail_fast ship" speed="13.89" length="11.20" shape="1117.45,1825.82 1115.79,1814.74"/>
        <lane id=":168_0_1" index="1" disallow="tram rail_urban rail rail_electric rail_fast ship" speed="13.89" length="11.20" shape="1120.61,1825.35 1118.96,1814.27"/>
    </edge>
    <edge id=":168_2" function="internal">
        <lane id=":168_2_0" index="0" disallow="tram rail_urban rail rail_electric rail_fast ship" speed="3.65" length="1.44" shape="1120.61,1825.35 1121.22,1824.05"/>
    </edge>
    <edge id=":168_8" function="internal">
        <lane id=":168_8_0" index="0" disallow="tram rail_urban rail rail_electric rail_fast ship" speed="3.65" length="3.23" shape="1121.22,1824.05 1121.96,1823.53 1122.81,1823.81 1123.78,1824.88"/>
    </edge>
    <edge id=":168_3" function="internal">
        <lane id=":168_3_0" index="0" disallow="tram rail_urban rail rail_electric rail_fast ship" speed="13.89" length="11.20" shape="1125.29,1813.33 1126.94,1824.41"/>
        <lane id=":168_3_1" index="1" disallow="tram rail_urban rail rail_electric rail_fast ship" speed="13.89" length="11.20" shape="1122.12,1813.80 1123.78,1824.88"/>
    </edge>
    <edge id=":168_5" function="internal">
        <lane id=":168_5_0" index="0" disallow="tram rail_urban rail rail_electric rail_fast ship" speed="3.65" length="1.44" shape="1122.12,1813.80 1121.51,1815.11"/>
    </edge>
    <edge id=":168_9" function="internal">
        <lane id=":168_9_0" index="0" disallow="tram rail_urban rail rail_electric rail_fast ship" speed="3.65" length="3.23" shape="1121.51,1815.11 1120.78,1815.62 1119.93,1815.34 1118.96,1814.27"/>
    </edge>
    <edge id=":168_6" function="internal">
        <lane id=":168_6_0" index="0" disallow="tram rail_urban rail rail_electric rail_fast ship" speed="6.47" length="9.03" shape="1111.04,1821.04 1113.43,1820.37 1115.02,1819.10 1115.81,1817.23 1115.79,1814.74"/>
    </edge>
    <edge id=":168_7" function="internal">
        <lane id=":168_7_0" index="0" disallow="tram rail_urban rail rail_electric rail_fast ship" speed="8.15" length="14.56" shape="1111.04,1821.04 1116.31,1820.70 1120.19,1821.22 1122.68,1822.61 1123.78,1824.88"/>
    </edge>
    <edge id=":174_0" function="internal">
        <lane id=":174_0_0" index="0" disallow="tram rail_urban rail rail_electric rail_fast ship" speed="13.89" length="0.11" shape="970.10,1800.80 970.17,1800.88"/>
    </edge>
    <edge id=":175_0" function="internal">
        <lane id=":175_0_0" index="0" disallow="tram rail_urban rail rail_electric rail_fast ship" speed="13.89" length="0.30" shape="595.00,1398.09 595.29,1398.04"/>
    </edge>
    <edge id=":180_0" function="internal">
        <lane id=":180_0_0" index="0" disallow="tram rail_urban rail rail_electric rail_fast ship" speed="13.89" length="0.10" shape="782.14,1598.62 782.14,1598.62"/>
    </edge>
    <edge id=":181_0" function="internal">
        <lane id=":181_0_0" index="0" disallow="tram rail_urban rail rail_electric rail_fast ship" speed="13.89" length="0.10" shape="407.99,1425.27 407.99,1425.27"/>
    </edge>
    <edge id=":182_0" function="internal">
        <lane id=":182_0_0" index="0" disallow="tram rail_urban rail rail_electric rail_fast ship" speed="13.89" length="0.30" shape="309.34,1439.37 309.64,1439.32"/>
    </edge>
    <edge id=":183_0" function="internal">
        <lane id=":183_0_0" index="0" disallow="tram rail_urban rail rail_electric rail_fast ship" speed="13.89" length="8.81" shape="1098.55,1702.49 1098.66,1699.98 1099.51,1698.29 1100.36,1696.60 1100.47,1694.09"/>
    </edge>
    <edge id=":183_1" function="internal">
        <lane id=":183_1_0" index="0" disallow="tram rail_urban rail rail_electric rail_fast ship" speed="3.65" length="1.44" shape="1101.71,1701.99 1102.31,1700.68"/>
    </edge>
    <edge id=":183_4" function="internal">
        <lane id=":183_4_0" index="0" disallow="tram rail_urban rail rail_electric rail_fast ship" speed="3.65" length="3.23" shape="1102.31,1700.68 1103.04,1700.16 1103.89,1700.43 1104.87,1701.49"/>
    </edge>
    <edge id=":183_2" function="internal">
        <lane id=":183_2_0" index="0" disallow="tram rail_urban rail rail_electric rail_fast ship" speed="13.89" length="8.00" shape="1103.63,1693.59 1104.87,1701.49"/>
    </edge>
    <edge id=":183_3" function="internal">
        <lane id=":183_3_0" index="0" disallow="tram rail_urban rail rail_electric rail_fast ship" speed="3.65" length="1.44" shape="1103.63,1693.59 1103.03,1694.90"/>
    </edge>
    <edge id=":183_5" function="internal">
        <lane id=":183_5_0" index="0" disallow="tram rail_urban rail rail_electric rail_fast ship" speed="3.65" length="3.23" shape="1103.03,1694.90 1102.30,1695.42 1101.45,1695.15 1100.47,1694.09"/>
    </edge>
    <edge id=":185_0" function="internal">
        <lane id=":185_0_0" index="0" disallow="tram rail_urban rail rail_electric rail_fast ship" speed="13.89" length="0.30" shape="819.74,307.07 819.69,306.77"/>
        <lane id=":185_0_1" index="1" disallow="tram rail_urban rail rail_electric rail_fast ship" speed="13.89" length="0.30" shape="822.90,306.60 822.86,306.30"/>
    </edge>
    <edge id=":185_2" function="internal">
        <lane id=":185_2_0" index="0" disallow="tram rail_urban rail rail_electric rail_fast ship" speed="3.65" length="2.34" shape="822.90,306.60 823.51,305.29 824.24,304.78"/>
    </edge>
    <edge id=":185_6" function="internal">
        <lane id=":185_6_0" index="0" disallow="tram rail_urban rail rail_electric rail_fast ship" speed="3.65" length="2.34" shape="824.24,304.78 825.10,305.05 826.06,306.12"/>
    </edge>
    <edge id=":185_3" function="internal">
        <lane id=":185_3_0" index="0" disallow="tram rail_urban rail rail_electric rail_fast ship" speed="13.89" length="0.29" shape="829.19,305.36 829.23,305.65"/>
        <lane id=":185_3_1" index="1" disallow="tram rail_urban rail rail_electric rail_fast ship" speed="13.89" length="0.29" shape="826.02,305.83 826.06,306.12"/>
    </edge>
    <edge id=":185_5" function="internal">
        <lane id=":185_5_0" index="0" disallow="tram rail_urban rail rail_electric rail_fast ship" speed="3.65" length="2.34" shape="826.02,305.83 825.41,307.13 824.67,307.64"/>
    </edge>
    <edge id=":185_7" function="internal">
        <lane id=":185_7_0" index="0" disallow="tram rail_urban rail rail_electric rail_fast ship" speed="3.65" length="2.34" shape="824.67,307.64 823.82,307.37 822.86,306.30"/>
    </edge>
    <edge id=":187_0" function="internal">
        <lane id=":187_0_0" index="0" disallow="tram rail_urban rail rail_electric rail_fast ship" speed="6.74" length="7.72" shape="1167.93,729.77 1167.37,727.86 1166.32,726.41 1164.77,725.42 1162.74,724.89"/>
    </edge>
    <edge id=":187_1" function="internal">
        <lane id=":187_1_0" index="0" disallow="tram rail_urban rail rail_electric rail_fast ship" speed="7.20" length="12.16" shape="1167.93,729.77 1167.99,726.65 1169.23,724.36 1171.63,722.92 1175.21,722.31"/>
    </edge>
    <edge id=":187_2" function="internal">
        <lane id=":187_2_0" index="0" disallow="tram rail_urban rail rail_electric rail_fast ship" speed="3.65" length="4.67" shape="1167.93,729.77 1168.55,728.47 1169.28,727.96 1170.13,728.24 1171.10,729.31"/>
    </edge>
    <edge id=":187_3" function="internal">
        <lane id=":187_3_0" index="0" disallow="tram rail_urban rail rail_electric rail_fast ship" speed="27.78" length="12.31" shape="1162.94,721.69 1166.24,722.09 1169.06,722.32 1171.89,722.40 1175.21,722.31"/>
    </edge>
    <edge id=":187_4" function="internal">
        <lane id=":187_4_0" index="0" disallow="tram rail_urban rail rail_electric rail_fast ship" speed="8.29" length="12.10" shape="1162.94,721.69 1166.14,722.51 1168.56,724.06 1170.22,726.32 1171.10,729.31"/>
    </edge>
    <edge id=":187_5" function="internal">
        <lane id=":187_5_0" index="0" disallow="tram rail_urban rail rail_electric rail_fast ship" speed="3.65" length="4.68" shape="1162.94,721.69 1164.09,722.56 1164.44,723.39 1163.99,724.16 1162.74,724.89"/>
    </edge>
    <edge id=":188_0" function="internal">
        <lane id=":188_0_0" index="0" disallow="tram rail_urban rail rail_electric rail_fast ship" speed="27.78" length="11.22" shape="1143.04,720.82 1132.07,718.44"/>
    </edge>
    <edge id=":188_1" function="internal">
        <lane id=":188_1_0" index="0" disallow="tram rail_urban rail rail_electric rail_fast ship" speed="8.19" length="1.98" shape="1143.04,720.82 1141.43,719.89 1141.36,719.79"/>
    </edge>
    <edge id=":188_2" function="internal">
        <lane id=":188_2_0" index="0" disallow="tram rail_urban rail rail_electric rail_fast ship" speed="3.65" length="1.44" shape="1143.04,720.82 1142.04,719.78"/>
    </edge>
    <edge id=":188_6" function="internal">
        <lane id=":188_6_0" index="0" disallow="tram rail_urban rail rail_electric rail_fast ship" speed="8.19" length="9.58" shape="1141.36,719.79 1140.17,717.90 1139.27,714.85 1138.72,710.72"/>
    </edge>
    <edge id=":188_7" function="internal">
        <lane id=":188_7_0" index="0" disallow="tram rail_urban rail rail_electric rail_fast ship" speed="3.65" length="3.23" shape="1142.04,719.78 1141.82,718.91 1142.38,718.22 1143.72,717.69"/>
    </edge>
    <edge id=":188_3" function="internal">
        <lane id=":188_3_0" index="0" disallow="tram rail_urban rail rail_electric rail_fast ship" speed="6.03" length="9.31" shape="1132.75,715.31 1135.54,715.55 1137.46,714.86 1138.52,713.25 1138.72,710.72"/>
    </edge>
    <edge id=":188_4" function="internal">
        <lane id=":188_4_0" index="0" disallow="tram rail_urban rail rail_electric rail_fast ship" speed="27.78" length="11.23" shape="1132.75,715.31 1143.72,717.69"/>
    </edge>
    <edge id=":188_5" function="internal">
        <lane id=":188_5_0" index="0" disallow="tram rail_urban rail rail_electric rail_fast ship" speed="3.65" length="1.44" shape="1132.75,715.31 1133.75,716.35"/>
    </edge>
    <edge id=":188_8" function="internal">
        <lane id=":188_8_0" index="0" disallow="tram rail_urban rail rail_electric rail_fast ship" speed="3.65" length="3.23" shape="1133.75,716.35 1133.98,717.21 1133.41,717.91 1132.07,718.44"/>
    </edge>
    <edge id=":189_0" function="internal">
        <lane id=":189_0_0" index="0" disallow="tram rail_urban rail rail_electric rail_fast ship" speed="13.89" length="23.18" shape="1099.09,1205.31 1104.05,1209.33 1108.22,1212.06 1112.79,1213.96 1118.94,1215.51"/>
        <lane id=":189_0_1" index="1" disallow="tram rail_urban rail rail_electric rail_fast ship" speed="13.89" length="23.18" shape="1097.45,1208.11 1102.56,1212.18 1107.07,1215.02 1111.98,1217.04 1118.29,1218.65"/>
    </edge>
    <edge id=":189_2" function="internal">
        <lane id=":189_2_0" index="0" disallow="tram rail_urban rail rail_electric rail_fast ship" speed="3.67" length="4.74" shape="1097.45,1208.11 1098.09,1209.42 1098.02,1210.33 1097.26,1210.82 1095.80,1210.90"/>
    </edge>
    <edge id=":189_3" function="internal">
        <lane id=":189_3_0" index="0" disallow="tram rail_urban rail rail_electric rail_fast ship" speed="5.55" length="11.43" shape="1092.76,1218.55 1096.70,1218.37 1098.24,1217.49 1097.40,1215.93 1094.17,1213.67"/>
    </edge>
    <edge id=":189_4" function="internal">
        <lane id=":189_4_0" index="0" disallow="tram rail_urban rail rail_electric rail_fast ship" speed="18.05" length="25.60" shape="1092.76,1218.55 1097.48,1218.35 1103.73,1217.89 1110.87,1217.79 1118.29,1218.65"/>
    </edge>
    <edge id=":191_0" function="internal">
        <lane id=":191_0_0" index="0" disallow="tram rail_urban rail rail_electric rail_fast ship" speed="27.78" length="0.30" shape="993.84,732.47 994.14,732.43"/>
    </edge>
    <edge id=":192_0" function="internal">
        <lane id=":192_0_0" index="0" disallow="tram rail_urban rail rail_electric rail_fast ship" speed="7.32" length="2.52" shape="1072.81,723.53 1070.30,723.38"/>
    </edge>
    <edge id=":192_1" function="internal">
        <lane id=":192_1_0" index="0" disallow="tram rail_urban rail rail_electric rail_fast ship" speed="3.65" length="1.44" shape="1072.81,723.53 1071.50,722.93"/>
    </edge>
    <edge id=":192_4" function="internal">
        <lane id=":192_4_0" index="0" disallow="tram rail_urban rail rail_electric rail_fast ship" speed="7.32" length="9.22" shape="1070.30,723.38 1068.31,722.02 1066.84,719.47 1065.90,715.72"/>
    </edge>
    <edge id=":192_5" function="internal">
        <lane id=":192_5_0" index="0" disallow="tram rail_urban rail rail_electric rail_fast ship" speed="3.65" length="3.23" shape="1071.50,722.93 1070.98,722.20 1071.24,721.35 1072.30,720.37"/>
    </edge>
    <edge id=":192_2" function="internal">
        <lane id=":192_2_0" index="0" disallow="tram rail_urban rail rail_electric rail_fast ship" speed="6.50" length="9.03" shape="1061.22,722.10 1063.59,721.39 1065.16,720.08 1065.93,718.19 1065.90,715.72"/>
    </edge>
    <edge id=":192_3" function="internal">
        <lane id=":192_3_0" index="0" disallow="tram rail_urban rail rail_electric rail_fast ship" speed="27.78" length="11.21" shape="1061.22,722.10 1072.30,720.37"/>
    </edge>
    <edge id=":194_0" function="internal">
        <lane id=":194_0_0" index="0" disallow="tram rail_urban rail rail_electric rail_fast ship" speed="13.89" length="11.24" shape="876.02,664.71 874.26,653.60"/>
        <lane id=":194_0_1" index="1" disallow="tram rail_urban rail rail_electric rail_fast ship" speed="13.89" length="11.24" shape="879.18,664.20 877.42,653.10"/>
    </edge>
    <edge id=":194_2" function="internal">
        <lane id=":194_2_0" index="0" disallow="tram rail_urban rail rail_electric rail_fast ship" speed="3.65" length="1.44" shape="879.18,664.20 879.78,662.89"/>
    </edge>
    <edge id=":194_8" function="internal">
        <lane id=":194_8_0" index="0" disallow="tram rail_urban rail rail_electric rail_fast ship" speed="3.65" length="3.23" shape="879.78,662.89 880.51,662.37 881.36,662.64 882.34,663.69"/>
    </edge>
    <edge id=":194_3" function="internal">
        <lane id=":194_3_0" index="0" disallow="tram rail_urban rail rail_electric rail_fast ship" speed="6.48" length="9.03" shape="890.16,656.81 887.79,657.52 886.22,658.82 885.46,660.71 885.50,663.19"/>
    </edge>
    <edge id=":194_4" function="internal">
        <lane id=":194_4_0" index="0" disallow="tram rail_urban rail rail_electric rail_fast ship" speed="8.12" length="14.57" shape="890.16,656.81 884.91,657.24 881.03,656.77 878.54,655.39 877.42,653.10"/>
    </edge>
    <edge id=":194_5" function="internal">
        <lane id=":194_5_0" index="0" disallow="tram rail_urban rail rail_electric rail_fast ship" speed="13.89" length="11.21" shape="883.74,652.12 885.50,663.19"/>
        <lane id=":194_5_1" index="1" disallow="tram rail_urban rail rail_electric rail_fast ship" speed="13.89" length="11.21" shape="880.58,652.61 882.34,663.69"/>
    </edge>
    <edge id=":194_7" function="internal">
        <lane id=":194_7_0" index="0" disallow="tram rail_urban rail rail_electric rail_fast ship" speed="3.65" length="1.44" shape="880.58,652.61 879.98,653.92"/>
    </edge>
    <edge id=":194_9" function="internal">
        <lane id=":194_9_0" index="0" disallow="tram rail_urban rail rail_electric rail_fast ship" speed="3.65" length="3.23" shape="879.98,653.92 879.25,654.44 878.40,654.17 877.42,653.10"/>
    </edge>
    <edge id=":195_0" function="internal">
        <lane id=":195_0_0" index="0" disallow="tram rail_urban rail rail_electric rail_fast ship" speed="13.89" length="0.27" shape="979.69,643.40 979.41,643.44"/>
    </edge>
    <edge id=":196_0" function="internal">
        <lane id=":196_0_0" index="0" disallow="tram rail_urban rail rail_electric rail_fast ship" speed="13.89" length="0.30" shape="1029.07,634.86 1028.77,634.92"/>
    </edge>
    <edge id=":197_0" function="internal">
        <lane id=":197_0_0" index="0" disallow="tram rail_urban rail rail_electric rail_fast ship" speed="6.46" length="9.03" shape="1053.47,636.26 1052.75,633.89 1051.44,632.34 1049.54,631.60 1047.06,631.68"/>
    </edge>
    <edge id=":197_1" function="internal">
        <lane id=":197_1_0" index="0" disallow="tram rail_urban rail rail_electric rail_fast ship" speed="13.89" length="11.23" shape="1058.13,629.79 1047.06,631.68"/>
    </edge>
    <edge id=":198_0" function="internal">
        <lane id=":198_0_0" index="0" disallow="tram rail_urban rail rail_electric rail_fast ship" speed="13.89" length="0.28" shape="1112.29,621.16 1112.01,621.20"/>
    </edge>
    <edge id=":199_0" function="internal">
        <lane id=":199_0_0" index="0" disallow="tram rail_urban rail rail_electric rail_fast ship" speed="13.89" length="0.62" shape="1118.43,620.46 1118.26,620.41 1118.13,620.38 1118.01,620.37 1117.82,620.39"/>
    </edge>
    <edge id=":207_0" function="internal">
        <lane id=":207_0_0" index="0" disallow="tram rail_urban rail rail_electric rail_fast ship" speed="13.89" length="0.10" shape="1609.54,1440.57 1609.63,1440.61"/>
    </edge>
    <edge id=":211_0" function="internal">
        <lane id=":211_0_0" index="0" disallow="tram rail_urban rail rail_electric rail_fast ship" speed="22.22" length="0.30" shape="1370.78,1363.82 1370.68,1364.10"/>
    </edge>
    <edge id=":216_0" function="internal">
        <lane id=":216_0_0" index="0" disallow="tram rail_urban rail rail_electric rail_fast ship" speed="13.89" length="0.23" shape="1083.37,1301.65 1083.34,1301.42"/>
    </edge>