<?xml version="1.0" encoding="UTF-8"?>

<!-- generated on 2022-10-09 18:16:32 by Eclipse SUMO netconvert Version 1.12.0
<configuration xmlns:xsi="http://www.w3.org/2001/XMLSchema-instance" xsi:noNamespaceSchemaLocation="http://sumo.dlr.de/xsd/netconvertConfiguration.xsd">

    <input>
        <sumo-net-file value="/home/svadlmat/UTC/utc/data/maps/sumo/Sydney.net.xml"/>
    </input>

    <output>
        <output-file value="/home/svadlmat/UTC/utc/data/scenarios/18_16_28_sydney/maps/networks/18_16_28_sydney_similarity_shortest_length_sg.net.xml"/>
    </output>

    <processing>
        <geometry.min-radius.fix.railways value="false"/>
        <geometry.max-grade.fix value="false"/>
        <offset.disable-normalization value="true"/>
        <lefthand value="false"/>
    </processing>

    <edge_removal>
        <keep-edges.explicit value="961,709,245,107,886,83,1021,428,1022,283,541,527,550,305,627,828,587,127,487,51,423,739,315,1018,919,535,920,16,341,424,1019,891,549,14,403,232,18,17,551,130,332,244,346,511,706,405,415,267,268,400,552,829,285,375,967,427,426,794,287,710,515,921,513,1020,827,831,269,483,968,126,766,957,958,98,832,890,826,399,867,404,897,131,508,425,960,988,563,502,628,333,878,129,331,9,712,526,86,525,512,898,482,286,15,284,894,233,922,209,62,342,99,1017,885,288,769,92,507,969,774,38,124,123,10"/>
    </edge_removal>

    <junctions>
        <no-turnarounds value="true"/>
        <junctions.corner-detail value="5"/>
        <junctions.limit-turn-speed value="5.5"/>
        <rectangular-lane-cut value="false"/>
    </junctions>

    <pedestrian>
        <walkingareas value="false"/>
    </pedestrian>

    <report>
        <aggregate-warnings value="5"/>
    </report>

</configuration>
-->

<net version="1.9" junctionCornerDetail="5" limitTurnSpeed="5.50" xmlns:xsi="http://www.w3.org/2001/XMLSchema-instance" xsi:noNamespaceSchemaLocation="http://sumo.dlr.de/xsd/net_file.xsd">

    <location netOffset="-336586.08,3754670.31" convBoundary="75.04,12.34,1929.63,2196.77" origBoundary="151.232525,-33.920080,151.266296,-33.899237" projParameter="+proj=utm +zone=56 +ellps=WGS84 +datum=WGS84 +units=m +no_defs"/>

    <type id="highway.bridleway" priority="1" numLanes="1" speed="2.78" allow="pedestrian" oneway="1" width="2.00"/>
    <type id="highway.bus_guideway" priority="1" numLanes="1" speed="27.78" allow="bus" oneway="1"/>
    <type id="highway.cycleway" priority="1" numLanes="1" speed="8.33" allow="bicycle" oneway="0" width="1.00"/>
    <type id="highway.footway" priority="1" numLanes="1" speed="2.78" allow="pedestrian" oneway="1" width="2.00"/>
    <type id="highway.ford" priority="1" numLanes="1" speed="2.78" allow="army" oneway="0"/>
    <type id="highway.living_street" priority="2" numLanes="1" speed="2.78" disallow="tram rail_urban rail rail_electric rail_fast ship" oneway="0"/>
    <type id="highway.motorway" priority="14" numLanes="2" speed="39.44" allow="private emergency authority army vip passenger hov taxi bus coach delivery truck trailer motorcycle evehicle custom1 custom2" oneway="1"/>
    <type id="highway.motorway_link" priority="9" numLanes="1" speed="22.22" allow="private emergency authority army vip passenger hov taxi bus coach delivery truck trailer motorcycle evehicle custom1 custom2" oneway="1"/>
    <type id="highway.path" priority="1" numLanes="1" speed="2.78" allow="pedestrian bicycle" oneway="0" width="2.00"/>
    <type id="highway.pedestrian" priority="1" numLanes="1" speed="2.78" allow="pedestrian" oneway="1" width="2.00"/>
    <type id="highway.primary" priority="12" numLanes="2" speed="27.78" disallow="tram rail_urban rail rail_electric rail_fast ship" oneway="0"/>
    <type id="highway.primary_link" priority="7" numLanes="1" speed="22.22" disallow="tram rail_urban rail rail_electric rail_fast ship" oneway="0"/>
    <type id="highway.raceway" priority="15" numLanes="2" speed="83.33" allow="vip" oneway="0"/>
    <type id="highway.residential" priority="3" numLanes="1" speed="13.89" disallow="tram rail_urban rail rail_electric rail_fast ship" oneway="0"/>
    <type id="highway.secondary" priority="11" numLanes="1" speed="27.78" disallow="tram rail_urban rail rail_electric rail_fast ship" oneway="0"/>
    <type id="highway.secondary_link" priority="6" numLanes="1" speed="22.22" disallow="tram rail_urban rail rail_electric rail_fast ship" oneway="0"/>
    <type id="highway.service" priority="1" numLanes="1" speed="5.56" allow="pedestrian delivery bicycle" oneway="0"/>
    <type id="highway.stairs" priority="1" numLanes="1" speed="1.39" allow="pedestrian" oneway="1" width="2.00"/>
    <type id="highway.step" priority="1" numLanes="1" speed="1.39" allow="pedestrian" oneway="1" width="2.00"/>
    <type id="highway.steps" priority="1" numLanes="1" speed="1.39" allow="pedestrian" oneway="1" width="2.00"/>
    <type id="highway.tertiary" priority="10" numLanes="1" speed="22.22" disallow="tram rail_urban rail rail_electric rail_fast ship" oneway="0"/>
    <type id="highway.tertiary_link" priority="5" numLanes="1" speed="22.22" disallow="tram rail_urban rail rail_electric rail_fast ship" oneway="0"/>
    <type id="highway.track" priority="1" numLanes="1" speed="5.56" allow="pedestrian motorcycle moped bicycle" oneway="0"/>
    <type id="highway.trunk" priority="13" numLanes="2" speed="27.78" disallow="pedestrian bicycle tram rail_urban rail rail_electric rail_fast ship" oneway="0"/>
    <type id="highway.trunk_link" priority="8" numLanes="1" speed="22.22" disallow="pedestrian bicycle tram rail_urban rail rail_electric rail_fast ship" oneway="0"/>
    <type id="highway.unclassified" priority="4" numLanes="1" speed="13.89" disallow="tram rail_urban rail rail_electric rail_fast ship" oneway="0"/>
    <type id="highway.unsurfaced" priority="1" numLanes="1" speed="8.33" disallow="tram rail_urban rail rail_electric rail_fast ship" oneway="0"/>
    <type id="railway.highspeed" priority="21" numLanes="1" speed="69.44" allow="rail_fast" oneway="1"/>
    <type id="railway.light_rail" priority="19" numLanes="1" speed="27.78" allow="rail_urban" oneway="1"/>
    <type id="railway.preserved" priority="16" numLanes="1" speed="27.78" allow="rail" oneway="1"/>
    <type id="railway.rail" priority="20" numLanes="1" speed="44.44" allow="rail" oneway="1"/>
    <type id="railway.subway" priority="18" numLanes="1" speed="27.78" allow="rail_urban" oneway="1"/>
    <type id="railway.tram" priority="17" numLanes="1" speed="13.89" allow="tram" oneway="1"/>

    <edge id=":117_0" function="internal">
        <lane id=":117_0_0" index="0" disallow="tram rail_urban rail rail_electric rail_fast ship" speed="3.90" length="2.70" shape="1470.09,635.03 1470.84,634.97 1471.41,635.17 1471.81,635.62 1472.03,636.33"/>
    </edge>
    <edge id=":124_0" function="internal">
        <lane id=":124_0_0" index="0" disallow="tram rail_urban rail rail_electric rail_fast ship" speed="27.78" length="0.30" shape="1387.74,673.85 1387.99,673.69"/>
    </edge>
    <edge id=":132_0" function="internal">
        <lane id=":132_0_0" index="0" disallow="tram rail_urban rail rail_electric rail_fast ship" speed="27.78" length="8.81" shape="1772.31,1111.59 1772.20,1114.10 1771.35,1115.79 1770.50,1117.48 1770.39,1119.99"/>
    </edge>
    <edge id=":136_0" function="internal">
        <lane id=":136_0_0" index="0" disallow="tram rail_urban rail rail_electric rail_fast ship" speed="22.23" length="8.26" shape="1765.00,1086.42 1765.98,1088.71 1767.35,1090.01 1768.68,1091.31 1769.53,1093.63"/>
        <lane id=":136_0_1" index="1" disallow="tram rail_urban rail rail_electric rail_fast ship" speed="22.23" length="8.26" shape="1765.00,1086.42 1766.37,1094.10"/>
    </edge>
    <edge id=":137_0" function="internal">
        <lane id=":137_0_0" index="0" disallow="tram rail_urban rail rail_electric rail_fast ship" speed="13.89" length="0.30" shape="1722.56,1443.62 1722.85,1443.62"/>
    </edge>
    <edge id=":148_0" function="internal">
        <lane id=":148_0_0" index="0" disallow="tram rail_urban rail rail_electric rail_fast ship" speed="13.89" length="8.76" shape="1764.78,1442.30 1767.22,1441.73 1768.73,1440.59 1770.25,1439.49 1772.69,1439.02"/>
    </edge>
    <edge id=":156_0" function="internal">
        <lane id=":156_0_0" index="0" disallow="tram rail_urban rail rail_electric rail_fast ship" speed="13.89" length="0.10" shape="797.08,1698.55 797.08,1698.55"/>
    </edge>
    <edge id=":158_0" function="internal">
        <lane id=":158_0_0" index="0" disallow="tram rail_urban rail rail_electric rail_fast ship" speed="13.89" length="0.10" shape="200.15,1454.86 200.15,1454.86"/>
    </edge>
    <edge id=":160_0" function="internal">
        <lane id=":160_0_0" index="0" disallow="tram rail_urban rail rail_electric rail_fast ship" speed="6.08" length="7.60" shape="845.37,1161.08 843.30,1161.06 841.71,1160.39 840.61,1159.07 839.99,1157.09"/>
    </edge>
    <edge id=":160_1" function="internal">
        <lane id=":160_1_0" index="0" disallow="tram rail_urban rail rail_electric rail_fast ship" speed="3.65" length="4.67" shape="845.37,1161.08 844.08,1160.45 843.57,1159.71 843.86,1158.86 844.95,1157.91"/>
    </edge>
    <edge id=":160_2" function="internal">
        <lane id=":160_2_0" index="0" disallow="tram rail_urban rail rail_electric rail_fast ship" speed="3.91" length="2.53" shape="843.15,1156.58 843.36,1157.24 843.73,1157.68 844.26,1157.90 844.95,1157.91"/>
    </edge>
    <edge id=":160_3" function="internal">
        <lane id=":160_3_0" index="0" disallow="tram rail_urban rail rail_electric rail_fast ship" speed="3.65" length="4.67" shape="843.15,1156.58 842.55,1157.89 841.83,1158.41 840.98,1158.14 839.99,1157.09"/>
    </edge>
    <edge id=":165_0" function="internal">
        <lane id=":165_0_0" index="0" disallow="tram rail_urban rail rail_electric rail_fast ship" speed="13.89" length="0.31" shape="877.64,1156.74 877.33,1156.79"/>
    </edge>
    <edge id=":165_1" function="internal">
        <lane id=":165_1_0" index="0" disallow="tram rail_urban rail rail_electric rail_fast ship" speed="3.65" length="2.34" shape="877.64,1156.74 876.33,1156.12 875.82,1155.39"/>
    </edge>
    <edge id=":165_4" function="internal">
        <lane id=":165_4_0" index="0" disallow="tram rail_urban rail rail_electric rail_fast ship" speed="3.65" length="2.34" shape="875.82,1155.39 876.10,1154.54 877.18,1153.58"/>
    </edge>
    <edge id=":165_2" function="internal">
        <lane id=":165_2_0" index="0" disallow="tram rail_urban rail rail_electric rail_fast ship" speed="13.89" length="0.28" shape="876.90,1153.61 877.18,1153.58"/>
    </edge>
    <edge id=":165_3" function="internal">
        <lane id=":165_3_0" index="0" disallow="tram rail_urban rail rail_electric rail_fast ship" speed="3.65" length="2.34" shape="876.90,1153.61 878.20,1154.25 878.70,1154.99"/>
    </edge>
    <edge id=":165_5" function="internal">
        <lane id=":165_5_0" index="0" disallow="tram rail_urban rail rail_electric rail_fast ship" speed="3.65" length="2.34" shape="878.70,1154.99 878.41,1155.83 877.33,1156.79"/>
    </edge>
    <edge id=":168_0" function="internal">
        <lane id=":168_0_0" index="0" disallow="tram rail_urban rail rail_electric rail_fast ship" speed="13.89" length="11.20" shape="1117.45,1825.82 1115.79,1814.74"/>
        <lane id=":168_0_1" index="1" disallow="tram rail_urban rail rail_electric rail_fast ship" speed="13.89" length="11.20" shape="1120.61,1825.35 1118.96,1814.27"/>
    </edge>
    <edge id=":168_2" function="internal">
        <lane id=":168_2_0" index="0" disallow="tram rail_urban rail rail_electric rail_fast ship" speed="3.65" length="4.67" shape="1120.61,1825.35 1121.22,1824.05 1121.96,1823.53 1122.81,1823.81 1123.78,1824.88"/>
    </edge>
    <edge id=":168_3" function="internal">
        <lane id=":168_3_0" index="0" disallow="tram rail_urban rail rail_electric rail_fast ship" speed="6.47" length="9.03" shape="1111.04,1821.04 1113.43,1820.37 1115.02,1819.10 1115.81,1817.23 1115.79,1814.74"/>
    </edge>
    <edge id=":168_4" function="internal">
        <lane id=":168_4_0" index="0" disallow="tram rail_urban rail rail_electric rail_fast ship" speed="8.15" length="14.56" shape="1111.04,1821.04 1116.31,1820.70 1120.19,1821.22 1122.68,1822.61 1123.78,1824.88"/>
    </edge>
    <edge id=":174_0" function="internal">
        <lane id=":174_0_0" index="0" disallow="tram rail_urban rail rail_electric rail_fast ship" speed="13.89" length="0.11" shape="970.10,1800.80 970.17,1800.88"/>
    </edge>
    <edge id=":175_0" function="internal">
        <lane id=":175_0_0" index="0" disallow="tram rail_urban rail rail_electric rail_fast ship" speed="13.89" length="0.30" shape="595.00,1398.09 595.29,1398.04"/>
    </edge>
    <edge id=":180_0" function="internal">
        <lane id=":180_0_0" index="0" disallow="tram rail_urban rail rail_electric rail_fast ship" speed="13.89" length="0.10" shape="782.14,1598.62 782.14,1598.62"/>
    </edge>
    <edge id=":181_0" function="internal">
        <lane id=":181_0_0" index="0" disallow="tram rail_urban rail rail_electric rail_fast ship" speed="13.89" length="0.10" shape="407.99,1425.27 407.99,1425.27"/>
    </edge>
    <edge id=":182_0" function="internal">
        <lane id=":182_0_0" index="0" disallow="tram rail_urban rail rail_electric rail_fast ship" speed="13.89" length="0.30" shape="309.34,1439.37 309.64,1439.32"/>
    </edge>
    <edge id=":183_0" function="internal">
        <lane id=":183_0_0" index="0" disallow="tram rail_urban rail rail_electric rail_fast ship" speed="13.89" length="8.81" shape="1098.55,1702.49 1098.66,1699.98 1099.51,1698.29 1100.36,1696.60 1100.47,1694.09"/>
    </edge>
    <edge id=":185_0" function="internal">
        <lane id=":185_0_0" index="0" disallow="tram rail_urban rail rail_electric rail_fast ship" speed="13.89" length="0.30" shape="819.74,307.07 819.69,306.77"/>
        <lane id=":185_0_1" index="1" disallow="tram rail_urban rail rail_electric rail_fast ship" speed="13.89" length="0.30" shape="822.90,306.60 822.86,306.30"/>
    </edge>
    <edge id=":185_2" function="internal">
        <lane id=":185_2_0" index="0" disallow="tram rail_urban rail rail_electric rail_fast ship" speed="3.65" length="2.34" shape="822.90,306.60 823.51,305.29 824.24,304.78"/>
    </edge>
    <edge id=":185_6" function="internal">
        <lane id=":185_6_0" index="0" disallow="tram rail_urban rail rail_electric rail_fast ship" speed="3.65" length="2.34" shape="824.24,304.78 825.10,305.05 826.06,306.12"/>
    </edge>
    <edge id=":185_3" function="internal">
        <lane id=":185_3_0" index="0" disallow="tram rail_urban rail rail_electric rail_fast ship" speed="13.89" length="0.29" shape="829.19,305.36 829.23,305.65"/>
        <lane id=":185_3_1" index="1" disallow="tram rail_urban rail rail_electric rail_fast ship" speed="13.89" length="0.29" shape="826.02,305.83 826.06,306.12"/>
    </edge>
    <edge id=":185_5" function="internal">
        <lane id=":185_5_0" index="0" disallow="tram rail_urban rail rail_electric rail_fast ship" speed="3.65" length="2.34" shape="826.02,305.83 825.41,307.13 824.67,307.64"/>
    </edge>
    <edge id=":185_7" function="internal">
        <lane id=":185_7_0" index="0" disallow="tram rail_urban rail rail_electric rail_fast ship" speed="3.65" length="2.34" shape="824.67,307.64 823.82,307.37 822.86,306.30"/>
    </edge>
    <edge id=":187_0" function="internal">
        <lane id=":187_0_0" index="0" disallow="tram rail_urban rail rail_electric rail_fast ship" speed="6.74" length="7.72" shape="1167.93,729.77 1167.37,727.86 1166.32,726.41 1164.77,725.42 1162.74,724.89"/>
    </edge>
    <edge id=":187_1" function="internal">
        <lane id=":187_1_0" index="0" disallow="tram rail_urban rail rail_electric rail_fast ship" speed="7.20" length="12.16" shape="1167.93,729.77 1167.99,726.65 1169.23,724.36 1171.63,722.92 1175.21,722.31"/>
    </edge>
    <edge id=":187_2" function="internal">
        <lane id=":187_2_0" index="0" disallow="tram rail_urban rail rail_electric rail_fast ship" speed="3.65" length="4.67" shape="1167.93,729.77 1168.55,728.47 1169.28,727.96 1170.13,728.24 1171.10,729.31"/>
    </edge>
    <edge id=":187_3" function="internal">
        <lane id=":187_3_0" index="0" disallow="tram rail_urban rail rail_electric rail_fast ship" speed="27.78" length="12.31" shape="1162.94,721.69 1166.24,722.09 1169.06,722.32 1171.89,722.40 1175.21,722.31"/>
    </edge>
    <edge id=":187_4" function="internal">
        <lane id=":187_4_0" index="0" disallow="tram rail_urban rail rail_electric rail_fast ship" speed="8.29" length="12.10" shape="1162.94,721.69 1166.14,722.51 1168.56,724.06 1170.22,726.32 1171.10,729.31"/>
    </edge>
    <edge id=":187_5" function="internal">
        <lane id=":187_5_0" index="0" disallow="tram rail_urban rail rail_electric rail_fast ship" speed="3.65" length="4.68" shape="1162.94,721.69 1164.09,722.56 1164.44,723.39 1163.99,724.16 1162.74,724.89"/>
    </edge>
    <edge id=":188_0" function="internal">
        <lane id=":188_0_0" index="0" disallow="tram rail_urban rail rail_electric rail_fast ship" speed="27.78" length="0.30" shape="1139.72,720.10 1139.44,720.03"/>
    </edge>
    <edge id=":188_1" function="internal">
        <lane id=":188_1_0" index="0" disallow="tram rail_urban rail rail_electric rail_fast ship" speed="3.65" length="2.34" shape="1139.72,720.10 1138.72,719.06 1138.50,718.19"/>
    </edge>
    <edge id=":188_4" function="internal">
        <lane id=":188_4_0" index="0" disallow="tram rail_urban rail rail_electric rail_fast ship" speed="3.65" length="2.34" shape="1138.50,718.19 1139.06,717.49 1140.41,716.97"/>
    </edge>
    <edge id=":188_2" function="internal">
        <lane id=":188_2_0" index="0" disallow="tram rail_urban rail rail_electric rail_fast ship" speed="27.78" length="0.30" shape="1140.11,716.90 1140.41,716.97"/>
    </edge>
    <edge id=":188_3" function="internal">
        <lane id=":188_3_0" index="0" disallow="tram rail_urban rail rail_electric rail_fast ship" speed="3.65" length="2.34" shape="1140.11,716.90 1141.12,717.94 1141.34,718.81"/>
    </edge>
    <edge id=":188_5" function="internal">
        <lane id=":188_5_0" index="0" disallow="tram rail_urban rail rail_electric rail_fast ship" speed="3.65" length="2.34" shape="1141.34,718.81 1140.78,719.50 1139.44,720.03"/>
    </edge>
    <edge id=":189_0" function="internal">
        <lane id=":189_0_0" index="0" disallow="tram rail_urban rail rail_electric rail_fast ship" speed="13.89" length="11.28" shape="1109.13,1211.33 1111.87,1212.97 1113.80,1214.02 1115.85,1214.78 1118.94,1215.51"/>
        <lane id=":189_0_1" index="1" disallow="tram rail_urban rail rail_electric rail_fast ship" speed="13.89" length="11.28" shape="1107.51,1214.08 1110.51,1215.88 1112.64,1217.03 1114.90,1217.85 1118.29,1218.65"/>
    </edge>
    <edge id=":189_2" function="internal">
        <lane id=":189_2_0" index="0" disallow="tram rail_urban rail rail_electric rail_fast ship" speed="18.05" length="12.27" shape="1106.10,1218.97 1109.27,1218.81 1111.83,1218.40 1114.57,1218.19 1118.29,1218.65"/>
    </edge>
    <edge id=":191_0" function="internal">
        <lane id=":191_0_0" index="0" disallow="tram rail_urban rail rail_electric rail_fast ship" speed="27.78" length="0.30" shape="993.84,732.47 994.14,732.43"/>
    </edge>
    <edge id=":192_0" function="internal">
        <lane id=":192_0_0" index="0" disallow="tram rail_urban rail rail_electric rail_fast ship" speed="7.32" length="2.52" shape="1072.81,723.53 1070.30,723.38"/>
    </edge>
    <edge id=":192_1" function="internal">
        <lane id=":192_1_0" index="0" disallow="tram rail_urban rail rail_electric rail_fast ship" speed="3.65" length="1.44" shape="1072.81,723.53 1071.50,722.93"/>
    </edge>
    <edge id=":192_4" function="internal">
        <lane id=":192_4_0" index="0" disallow="tram rail_urban rail rail_electric rail_fast ship" speed="7.32" length="9.22" shape="1070.30,723.38 1068.31,722.02 1066.84,719.47 1065.90,715.72"/>
    </edge>
    <edge id=":192_5" function="internal">
        <lane id=":192_5_0" index="0" disallow="tram rail_urban rail rail_electric rail_fast ship" speed="3.65" length="3.23" shape="1071.50,722.93 1070.98,722.20 1071.24,721.35 1072.30,720.37"/>
    </edge>
    <edge id=":192_2" function="internal">
        <lane id=":192_2_0" index="0" disallow="tram rail_urban rail rail_electric rail_fast ship" speed="6.50" length="9.03" shape="1061.22,722.10 1063.59,721.39 1065.16,720.08 1065.93,718.19 1065.90,715.72"/>
    </edge>
    <edge id=":192_3" function="internal">
        <lane id=":192_3_0" index="0" disallow="tram rail_urban rail rail_electric rail_fast ship" speed="27.78" length="11.21" shape="1061.22,722.10 1072.30,720.37"/>
    </edge>
    <edge id=":194_0" function="internal">
        <lane id=":194_0_0" index="0" disallow="tram rail_urban rail rail_electric rail_fast ship" speed="13.89" length="11.24" shape="876.02,664.71 874.26,653.60"/>
        <lane id=":194_0_1" index="1" disallow="tram rail_urban rail rail_electric rail_fast ship" speed="13.89" length="11.24" shape="879.18,664.20 877.42,653.10"/>
    </edge>
    <edge id=":194_2" function="internal">
        <lane id=":194_2_0" index="0" disallow="tram rail_urban rail rail_electric rail_fast ship" speed="3.65" length="1.44" shape="879.18,664.20 879.78,662.89"/>
    </edge>
    <edge id=":194_8" function="internal">
        <lane id=":194_8_0" index="0" disallow="tram rail_urban rail rail_electric rail_fast ship" speed="3.65" length="3.23" shape="879.78,662.89 880.51,662.37 881.36,662.64 882.34,663.69"/>
    </edge>
    <edge id=":194_3" function="internal">
        <lane id=":194_3_0" index="0" disallow="tram rail_urban rail rail_electric rail_fast ship" speed="6.48" length="9.03" shape="890.16,656.81 887.79,657.52 886.22,658.82 885.46,660.71 885.50,663.19"/>
    </edge>
    <edge id=":194_4" function="internal">
        <lane id=":194_4_0" index="0" disallow="tram rail_urban rail rail_electric rail_fast ship" speed="8.12" length="14.57" shape="890.16,656.81 884.91,657.24 881.03,656.77 878.54,655.39 877.42,653.10"/>
    </edge>
    <edge id=":194_5" function="internal">
        <lane id=":194_5_0" index="0" disallow="tram rail_urban rail rail_electric rail_fast ship" speed="13.89" length="11.21" shape="883.74,652.12 885.50,663.19"/>
        <lane id=":194_5_1" index="1" disallow="tram rail_urban rail rail_electric rail_fast ship" speed="13.89" length="11.21" shape="880.58,652.61 882.34,663.69"/>
    </edge>
    <edge id=":194_7" function="internal">
        <lane id=":194_7_0" index="0" disallow="tram rail_urban rail rail_electric rail_fast ship" speed="3.65" length="1.44" shape="880.58,652.61 879.98,653.92"/>
    </edge>
    <edge id=":194_9" function="internal">
        <lane id=":194_9_0" index="0" disallow="tram rail_urban rail rail_electric rail_fast ship" speed="3.65" length="3.23" shape="879.98,653.92 879.25,654.44 878.40,654.17 877.42,653.10"/>
    </edge>
    <edge id=":195_0" function="internal">
        <lane id=":195_0_0" index="0" disallow="tram rail_urban rail rail_electric rail_fast ship" speed="13.89" length="0.27" shape="979.69,643.40 979.41,643.44"/>
    </edge>
    <edge id=":196_0" function="internal">
        <lane id=":196_0_0" index="0" disallow="tram rail_urban rail rail_electric rail_fast ship" speed="13.89" length="0.30" shape="1029.07,634.86 1028.77,634.92"/>
    </edge>
    <edge id=":197_0" function="internal">
        <lane id=":197_0_0" index="0" disallow="tram rail_urban rail rail_electric rail_fast ship" speed="3.90" length="2.62" shape="1052.86,632.31 1052.65,631.62 1052.27,631.17 1051.72,630.96 1051.00,630.98"/>
    </edge>
    <edge id=":207_0" function="internal">
        <lane id=":207_0_0" index="0" disallow="tram rail_urban rail rail_electric rail_fast ship" speed="13.89" length="0.10" shape="1609.54,1440.57 1609.63,1440.61"/>
    </edge>
    <edge id=":211_0" function="internal">
        <lane id=":211_0_0" index="0" disallow="tram rail_urban rail rail_electric rail_fast ship" speed="22.22" length="0.30" shape="1370.78,1363.82 1370.68,1364.10"/>
    </edge>
    <edge id=":216_0" function="internal">
        <lane id=":216_0_0" index="0" disallow="tram rail_urban rail rail_electric rail_fast ship" speed="13.89" length="0.27" shape="1083.37,1301.67 1083.34,1301.40"/>
    </edge>
    <edge id=":220_0" function="internal">
        <lane id=":220_0_0" index="0" disallow="tram rail_urban rail rail_electric rail_fast ship" speed="6.13" length="9.06" shape="1203.84,1233.57 1202.78,1235.90 1202.81,1237.87 1203.93,1239.50 1206.15,1240.77"/>
    </edge>
    <edge id=":220_1" function="internal">
        <lane id=":220_1_0" index="0" disallow="tram rail_urban rail rail_electric rail_fast ship" speed="3.65" length="4.67" shape="1203.84,1233.57 1202.52,1234.15 1201.63,1234.05 1201.17,1233.28 1201.15,1231.84"/>
    </edge>
    <edge id=":220_2" function="internal">
        <lane id=":220_2_0" index="0" disallow="tram rail_urban rail rail_electric rail_fast ship" speed="7.36" length="10.09" shape="1192.66,1235.40 1195.04,1235.91 1197.25,1235.49 1199.29,1234.14 1201.15,1231.84"/>
    </edge>
    <edge id=":220_3" function="internal">
        <lane id=":220_3_0" index="0" disallow="tram rail_urban rail rail_electric rail_fast ship" speed="13.89" length="14.52" shape="1192.66,1235.40 1206.15,1240.77"/>
    </edge>
    <edge id=":221_0" function="internal">
        <lane id=":221_0_0" index="0" disallow="tram rail_urban rail rail_electric rail_fast ship" speed="6.91" length="3.34" shape="1242.91,1169.76 1243.04,1170.73 1243.03,1171.42 1242.81,1172.07 1242.34,1172.94"/>
    </edge>
    <edge id=":221_1" function="internal">
        <lane id=":221_1_0" index="0" disallow="tram rail_urban rail rail_electric rail_fast ship" speed="3.65" length="1.44" shape="1242.91,1169.76 1242.32,1171.07"/>
    </edge>
    <edge id=":221_4" function="internal">
        <lane id=":221_4_0" index="0" disallow="tram rail_urban rail rail_electric rail_fast ship" speed="3.65" length="3.23" shape="1242.32,1171.07 1241.60,1171.60 1240.74,1171.34 1239.75,1170.29"/>
    </edge>
    <edge id=":221_2" function="internal">
        <lane id=":221_2_0" index="0" disallow="tram rail_urban rail rail_electric rail_fast ship" speed="4.34" length="1.11" shape="1239.56,1171.35 1239.72,1171.06 1239.79,1170.84 1239.80,1170.61 1239.75,1170.29"/>
    </edge>
    <edge id=":221_3" function="internal">
        <lane id=":221_3_0" index="0" disallow="tram rail_urban rail rail_electric rail_fast ship" speed="3.65" length="1.44" shape="1239.56,1171.35 1240.85,1170.70"/>
    </edge>
    <edge id=":221_5" function="internal">
        <lane id=":221_5_0" index="0" disallow="tram rail_urban rail rail_electric rail_fast ship" speed="3.65" length="3.23" shape="1240.85,1170.70 1241.75,1170.75 1242.24,1171.50 1242.34,1172.94"/>
    </edge>
    <edge id=":223_0" function="internal">
        <lane id=":223_0_0" index="0" disallow="tram rail_urban rail rail_electric rail_fast ship" speed="16.67" length="0.30" shape="1709.27,1023.61 1709.48,1023.82"/>
    </edge>
    <edge id=":226_0" function="internal">
        <lane id=":226_0_0" index="0" disallow="tram rail_urban rail rail_electric rail_fast ship" speed="16.67" length="0.30" shape="949.41,857.79 949.27,857.54"/>
        <lane id=":226_0_1" index="1" disallow="tram rail_urban rail rail_electric rail_fast ship" speed="16.67" length="0.30" shape="952.19,856.20 952.04,855.94"/>
    </edge>
    <edge id=":226_2" function="internal">
        <lane id=":226_2_0" index="0" disallow="tram rail_urban rail rail_electric rail_fast ship" speed="3.65" length="2.34" shape="952.19,856.20 952.28,854.76 952.78,854.01"/>
    </edge>
    <edge id=":226_6" function="internal">
        <lane id=":226_6_0" index="0" disallow="tram rail_urban rail rail_electric rail_fast ship" speed="3.65" length="2.34" shape="952.78,854.01 953.67,853.96 954.96,854.60"/>
    </edge>
    <edge id=":226_3" function="internal">
        <lane id=":226_3_0" index="0" disallow="tram rail_urban rail rail_electric rail_fast ship" speed="16.67" length="0.30" shape="957.58,852.74 957.73,853.01"/>
        <lane id=":226_3_1" index="1" disallow="tram rail_urban rail rail_electric rail_fast ship" speed="16.67" length="0.30" shape="954.81,854.34 954.96,854.60"/>
    </edge>
    <edge id=":226_5" function="internal">
        <lane id=":226_5_0" index="0" disallow="tram rail_urban rail rail_electric rail_fast ship" speed="3.65" length="2.34" shape="954.81,854.34 954.72,855.78 954.22,856.53"/>
    </edge>
    <edge id=":226_7" function="internal">
        <lane id=":226_7_0" index="0" disallow="tram rail_urban rail rail_electric rail_fast ship" speed="3.65" length="2.34" shape="954.22,856.53 953.33,856.58 952.04,855.94"/>
    </edge>
    <edge id=":227_0" function="internal">
        <lane id=":227_0_0" index="0" disallow="tram rail_urban rail rail_electric rail_fast ship" speed="13.89" length="0.22" shape="1182.80,818.30 1182.76,818.09"/>
    </edge>
    <edge id=":227_1" function="internal">
        <lane id=":227_1_0" index="0" disallow="tram rail_urban rail rail_electric rail_fast ship" speed="3.65" length="2.34" shape="1182.80,818.30 1183.40,816.99 1184.13,816.47"/>
    </edge>
    <edge id=":227_4" function="internal">
        <lane id=":227_4_0" index="0" disallow="tram rail_urban rail rail_electric rail_fast ship" speed="3.65" length="2.34" shape="1184.13,816.47 1184.98,816.74 1185.96,817.80"/>
    </edge>
    <edge id=":227_2" function="internal">
        <lane id=":227_2_0" index="0" disallow="tram rail_urban rail rail_electric rail_fast ship" speed="13.89" length="0.31" shape="1185.91,817.49 1185.96,817.80"/>
    </edge>
    <edge id=":227_3" function="internal">
        <lane id=":227_3_0" index="0" disallow="tram rail_urban rail rail_electric rail_fast ship" speed="3.65" length="2.34" shape="1185.91,817.49 1185.34,818.82 1184.63,819.36"/>
    </edge>