<?xml version="1.0" encoding="UTF-8"?>

<!-- generated on 2022-10-09 18:16:32 by Eclipse SUMO netconvert Version 1.12.0
<configuration xmlns:xsi="http://www.w3.org/2001/XMLSchema-instance" xsi:noNamespaceSchemaLocation="http://sumo.dlr.de/xsd/netconvertConfiguration.xsd">

    <input>
        <sumo-net-file value="/home/svadlmat/UTC/utc/data/maps/sumo/Sydney.net.xml"/>
    </input>

    <output>
        <output-file value="/home/svadlmat/UTC/utc/data/scenarios/18_16_28_sydney/maps/networks/18_16_28_sydney_default_sg.net.xml"/>
    </output>

    <processing>
        <geometry.min-radius.fix.railways value="false"/>
        <geometry.max-grade.fix value="false"/>
        <offset.disable-normalization value="true"/>
        <lefthand value="false"/>
    </processing>

    <edge_removal>
        <keep-edges.explicit value="103,961,709,245,107,382,866,886,83,1021,428,796,334,808,1022,135,283,541,527,615,550,305,237,236,627,828,587,127,487,192,51,110,423,739,315,1018,919,535,920,16,341,424,1019,546,725,891,791,1003,74,1004,569,549,795,686,1005,14,403,35,869,232,18,17,523,551,698,289,806,130,509,332,244,346,511,730,706,116,970,405,125,415,76,267,1002,959,268,609,1006,400,936,552,829,285,375,77,439,967,427,426,931,113,794,287,538,710,807,515,104,921,516,513,1020,937,695,827,831,269,483,968,126,102,20,859,75,133,766,957,958,98,545,19,101,832,890,263,768,826,399,867,884,404,784,897,131,508,97,425,578,577,960,641,988,548,632,132,563,112,134,616,792,502,628,333,858,878,111,129,331,9,712,526,86,525,512,746,898,482,286,583,136,524,585,707,15,284,894,233,922,209,62,1007,342,99,889,1017,1010,837,547,885,288,769,92,507,721,969,774,699,117,38,82,124,230,84,123,10,797"/>
    </edge_removal>

    <junctions>
        <no-turnarounds value="true"/>
        <junctions.corner-detail value="5"/>
        <junctions.limit-turn-speed value="5.5"/>
        <rectangular-lane-cut value="false"/>
    </junctions>

    <pedestrian>
        <walkingareas value="false"/>
    </pedestrian>

    <report>
        <aggregate-warnings value="5"/>
    </report>

</configuration>
-->

<net version="1.9" junctionCornerDetail="5" limitTurnSpeed="5.50" xmlns:xsi="http://www.w3.org/2001/XMLSchema-instance" xsi:noNamespaceSchemaLocation="http://sumo.dlr.de/xsd/net_file.xsd">

    <location netOffset="-336586.08,3754670.31" convBoundary="75.04,12.34,2071.19,2196.77" origBoundary="151.232525,-33.920080,151.266296,-33.899237" projParameter="+proj=utm +zone=56 +ellps=WGS84 +datum=WGS84 +units=m +no_defs"/>

    <type id="highway.bridleway" priority="1" numLanes="1" speed="2.78" allow="pedestrian" oneway="1" width="2.00"/>
    <type id="highway.bus_guideway" priority="1" numLanes="1" speed="27.78" allow="bus" oneway="1"/>
    <type id="highway.cycleway" priority="1" numLanes="1" speed="8.33" allow="bicycle" oneway="0" width="1.00"/>
    <type id="highway.footway" priority="1" numLanes="1" speed="2.78" allow="pedestrian" oneway="1" width="2.00"/>
    <type id="highway.ford" priority="1" numLanes="1" speed="2.78" allow="army" oneway="0"/>
    <type id="highway.living_street" priority="2" numLanes="1" speed="2.78" disallow="tram rail_urban rail rail_electric rail_fast ship" oneway="0"/>
    <type id="highway.motorway" priority="14" numLanes="2" speed="39.44" allow="private emergency authority army vip passenger hov taxi bus coach delivery truck trailer motorcycle evehicle custom1 custom2" oneway="1"/>
    <type id="highway.motorway_link" priority="9" numLanes="1" speed="22.22" allow="private emergency authority army vip passenger hov taxi bus coach delivery truck trailer motorcycle evehicle custom1 custom2" oneway="1"/>
    <type id="highway.path" priority="1" numLanes="1" speed="2.78" allow="pedestrian bicycle" oneway="0" width="2.00"/>
    <type id="highway.pedestrian" priority="1" numLanes="1" speed="2.78" allow="pedestrian" oneway="1" width="2.00"/>
    <type id="highway.primary" priority="12" numLanes="2" speed="27.78" disallow="tram rail_urban rail rail_electric rail_fast ship" oneway="0"/>
    <type id="highway.primary_link" priority="7" numLanes="1" speed="22.22" disallow="tram rail_urban rail rail_electric rail_fast ship" oneway="0"/>
    <type id="highway.raceway" priority="15" numLanes="2" speed="83.33" allow="vip" oneway="0"/>
    <type id="highway.residential" priority="3" numLanes="1" speed="13.89" disallow="tram rail_urban rail rail_electric rail_fast ship" oneway="0"/>
    <type id="highway.secondary" priority="11" numLanes="1" speed="27.78" disallow="tram rail_urban rail rail_electric rail_fast ship" oneway="0"/>
    <type id="highway.secondary_link" priority="6" numLanes="1" speed="22.22" disallow="tram rail_urban rail rail_electric rail_fast ship" oneway="0"/>
    <type id="highway.service" priority="1" numLanes="1" speed="5.56" allow="pedestrian delivery bicycle" oneway="0"/>
    <type id="highway.stairs" priority="1" numLanes="1" speed="1.39" allow="pedestrian" oneway="1" width="2.00"/>
    <type id="highway.step" priority="1" numLanes="1" speed="1.39" allow="pedestrian" oneway="1" width="2.00"/>
    <type id="highway.steps" priority="1" numLanes="1" speed="1.39" allow="pedestrian" oneway="1" width="2.00"/>
    <type id="highway.tertiary" priority="10" numLanes="1" speed="22.22" disallow="tram rail_urban rail rail_electric rail_fast ship" oneway="0"/>
    <type id="highway.tertiary_link" priority="5" numLanes="1" speed="22.22" disallow="tram rail_urban rail rail_electric rail_fast ship" oneway="0"/>
    <type id="highway.track" priority="1" numLanes="1" speed="5.56" allow="pedestrian motorcycle moped bicycle" oneway="0"/>
    <type id="highway.trunk" priority="13" numLanes="2" speed="27.78" disallow="pedestrian bicycle tram rail_urban rail rail_electric rail_fast ship" oneway="0"/>
    <type id="highway.trunk_link" priority="8" numLanes="1" speed="22.22" disallow="pedestrian bicycle tram rail_urban rail rail_electric rail_fast ship" oneway="0"/>
    <type id="highway.unclassified" priority="4" numLanes="1" speed="13.89" disallow="tram rail_urban rail rail_electric rail_fast ship" oneway="0"/>
    <type id="highway.unsurfaced" priority="1" numLanes="1" speed="8.33" disallow="tram rail_urban rail rail_electric rail_fast ship" oneway="0"/>
    <type id="railway.highspeed" priority="21" numLanes="1" speed="69.44" allow="rail_fast" oneway="1"/>
    <type id="railway.light_rail" priority="19" numLanes="1" speed="27.78" allow="rail_urban" oneway="1"/>
    <type id="railway.preserved" priority="16" numLanes="1" speed="27.78" allow="rail" oneway="1"/>
    <type id="railway.rail" priority="20" numLanes="1" speed="44.44" allow="rail" oneway="1"/>
    <type id="railway.subway" priority="18" numLanes="1" speed="27.78" allow="rail_urban" oneway="1"/>
    <type id="railway.tram" priority="17" numLanes="1" speed="13.89" allow="tram" oneway="1"/>

    <edge id=":107_0" function="internal">
        <lane id=":107_0_0" index="0" disallow="tram rail_urban rail rail_electric rail_fast ship" speed="13.89" length="0.30" shape="948.66,199.83 948.37,199.89"/>
    </edge>
    <edge id=":117_0" function="internal">
        <lane id=":117_0_0" index="0" disallow="tram rail_urban rail rail_electric rail_fast ship" speed="27.78" length="11.21" shape="1466.16,635.93 1477.06,633.29"/>
    </edge>
    <edge id=":117_1" function="internal">
        <lane id=":117_1_0" index="0" disallow="tram rail_urban rail rail_electric rail_fast ship" speed="6.38" length="9.06" shape="1466.16,635.93 1468.67,635.72 1470.59,636.38 1471.92,637.90 1472.67,640.28"/>
    </edge>
    <edge id=":124_0" function="internal">
        <lane id=":124_0_0" index="0" disallow="tram rail_urban rail rail_electric rail_fast ship" speed="27.78" length="0.30" shape="1387.74,673.85 1387.99,673.69"/>
    </edge>
    <edge id=":129_0" function="internal">
        <lane id=":129_0_0" index="0" disallow="tram rail_urban rail rail_electric rail_fast ship" speed="22.22" length="0.10" shape="1918.41,1529.81 1918.47,1529.86"/>
    </edge>
    <edge id=":132_0" function="internal">
        <lane id=":132_0_0" index="0" disallow="tram rail_urban rail rail_electric rail_fast ship" speed="27.78" length="11.78" shape="1771.81,1108.42 1771.86,1111.96 1771.15,1114.51 1770.41,1116.91 1770.39,1119.99"/>
    </edge>
    <edge id=":132_1" function="internal">
        <lane id=":132_1_0" index="0" disallow="tram rail_urban rail rail_electric rail_fast ship" speed="6.34" length="9.04" shape="1763.92,1115.68 1766.42,1115.44 1768.33,1116.08 1769.65,1117.60 1770.39,1119.99"/>
    </edge>
    <edge id=":135_0" function="internal">
        <lane id=":135_0_0" index="0" disallow="tram rail_urban rail rail_electric rail_fast ship" speed="3.90" length="2.58" shape="1838.22,1200.37 1838.93,1200.36 1839.47,1200.57 1839.85,1201.02 1840.06,1201.69"/>
    </edge>
    <edge id=":136_0" function="internal">
        <lane id=":136_0_0" index="0" disallow="tram rail_urban rail rail_electric rail_fast ship" speed="22.23" length="8.26" shape="1765.00,1086.42 1765.98,1088.71 1767.35,1090.01 1768.68,1091.31 1769.53,1093.63"/>
        <lane id=":136_0_1" index="1" disallow="tram rail_urban rail rail_electric rail_fast ship" speed="22.23" length="8.26" shape="1765.00,1086.42 1766.37,1094.10"/>
    </edge>
    <edge id=":137_0" function="internal">
        <lane id=":137_0_0" index="0" disallow="tram rail_urban rail rail_electric rail_fast ship" speed="13.89" length="0.30" shape="1722.56,1443.62 1722.85,1443.62"/>
    </edge>
    <edge id=":139_0" function="internal">
        <lane id=":139_0_0" index="0" disallow="tram rail_urban rail rail_electric rail_fast ship" speed="22.22" length="9.33" shape="1979.60,1667.94 1981.16,1677.13"/>
    </edge>
    <edge id=":139_1" function="internal">
        <lane id=":139_1_0" index="0" disallow="tram rail_urban rail rail_electric rail_fast ship" speed="6.06" length="7.80" shape="1979.60,1667.94 1979.80,1670.70 1979.49,1672.74 1978.67,1674.04 1977.35,1674.60"/>
    </edge>
    <edge id=":139_2" function="internal">
        <lane id=":139_2_0" index="0" disallow="tram rail_urban rail rail_electric rail_fast ship" speed="6.22" length="7.76" shape="1976.95,1671.43 1978.34,1671.64 1979.51,1672.66 1980.45,1674.49 1981.16,1677.13"/>
    </edge>
    <edge id=":139_3" function="internal">
        <lane id=":139_3_0" index="0" disallow="tram rail_urban rail rail_electric rail_fast ship" speed="3.65" length="4.67" shape="1976.95,1671.43 1978.24,1672.07 1978.73,1672.81 1978.44,1673.66 1977.35,1674.60"/>
    </edge>
    <edge id=":140_0" function="internal">
        <lane id=":140_0_0" index="0" disallow="tram rail_urban rail rail_electric rail_fast ship" speed="6.50" length="9.03" shape="1524.19,1629.39 1524.91,1631.76 1526.22,1633.33 1528.11,1634.09 1530.58,1634.05"/>
    </edge>
    <edge id=":140_1" function="internal">
        <lane id=":140_1_0" index="0" disallow="tram rail_urban rail rail_electric rail_fast ship" speed="13.89" length="11.20" shape="1524.19,1629.39 1525.90,1640.46"/>
    </edge>
    <edge id=":142_0" function="internal">
        <lane id=":142_0_0" index="0" disallow="tram rail_urban rail rail_electric rail_fast ship" speed="10.69" length="4.87" shape="2069.55,1337.10 2069.83,1338.45 2069.67,1339.41 2069.29,1340.40 2068.91,1341.80"/>
    </edge>
    <edge id=":143_0" function="internal">
        <lane id=":143_0_0" index="0" disallow="tram rail_urban rail rail_electric rail_fast ship" speed="11.11" length="0.29" shape="2008.72,1479.46 2008.60,1479.72"/>
    </edge>
    <edge id=":145_0" function="internal">
        <lane id=":145_0_0" index="0" disallow="tram rail_urban rail rail_electric rail_fast ship" speed="6.51" length="9.00" shape="1866.36,1361.51 1867.10,1363.87 1868.42,1365.42 1870.31,1366.18 1872.77,1366.14"/>
    </edge>
    <edge id=":145_1" function="internal">
        <lane id=":145_1_0" index="0" disallow="tram rail_urban rail rail_electric rail_fast ship" speed="7.31" length="11.69" shape="1866.36,1361.51 1866.64,1365.36 1866.05,1368.23 1864.59,1370.13 1862.27,1371.06"/>
    </edge>
    <edge id=":145_2" function="internal">
        <lane id=":145_2_0" index="0" disallow="tram rail_urban rail rail_electric rail_fast ship" speed="13.89" length="11.15" shape="1861.76,1367.90 1872.77,1366.14"/>
    </edge>
    <edge id=":145_3" function="internal">
        <lane id=":145_3_0" index="0" disallow="tram rail_urban rail rail_electric rail_fast ship" speed="3.65" length="1.23" shape="1861.76,1367.90 1862.88,1368.42"/>
    </edge>
    <edge id=":145_4" function="internal">
        <lane id=":145_4_0" index="0" disallow="tram rail_urban rail rail_electric rail_fast ship" speed="3.65" length="3.44" shape="1862.88,1368.42 1863.07,1368.50 1863.59,1369.23 1863.32,1370.08 1862.27,1371.06"/>
    </edge>
    <edge id=":146_0" function="internal">
        <lane id=":146_0_0" index="0" disallow="tram rail_urban rail rail_electric rail_fast ship" speed="13.89" length="0.10" shape="1974.70,1349.79 1974.70,1349.79"/>
    </edge>
    <edge id=":148_0" function="internal">
        <lane id=":148_0_0" index="0" disallow="tram rail_urban rail rail_electric rail_fast ship" speed="6.48" length="9.08" shape="1767.17,1447.86 1767.49,1445.37 1768.53,1443.60 1770.27,1442.55 1772.74,1442.22"/>
    </edge>
    <edge id=":148_1" function="internal">
        <lane id=":148_1_0" index="0" disallow="tram rail_urban rail rail_electric rail_fast ship" speed="13.89" length="11.92" shape="1761.47,1442.41 1764.52,1441.80 1766.78,1440.63 1769.22,1439.50 1772.77,1439.02"/>
    </edge>
    <edge id=":156_0" function="internal">
        <lane id=":156_0_0" index="0" disallow="tram rail_urban rail rail_electric rail_fast ship" speed="13.89" length="0.10" shape="797.08,1698.55 797.08,1698.55"/>
    </edge>
    <edge id=":158_0" function="internal">
        <lane id=":158_0_0" index="0" disallow="tram rail_urban rail rail_electric rail_fast ship" speed="13.89" length="0.10" shape="200.15,1454.86 200.15,1454.86"/>
    </edge>
    <edge id=":160_0" function="internal">
        <lane id=":160_0_0" index="0" disallow="tram rail_urban rail rail_electric rail_fast ship" speed="8.07" length="3.96" shape="849.34,1160.55 845.49,1160.51 845.39,1160.47"/>
    </edge>
    <edge id=":160_1" function="internal">
        <lane id=":160_1_0" index="0" disallow="tram rail_urban rail rail_electric rail_fast ship" speed="3.65" length="1.44" shape="849.34,1160.55 848.04,1159.91"/>
    </edge>
    <edge id=":160_6" function="internal">
        <lane id=":160_6_0" index="0" disallow="tram rail_urban rail rail_electric rail_fast ship" speed="8.07" length="10.22" shape="845.39,1160.47 842.54,1159.25 840.49,1156.76 839.34,1153.04"/>
    </edge>
    <edge id=":160_7" function="internal">
        <lane id=":160_7_0" index="0" disallow="tram rail_urban rail rail_electric rail_fast ship" speed="3.65" length="3.23" shape="848.04,1159.91 847.54,1159.17 847.83,1158.33 848.91,1157.38"/>
    </edge>
    <edge id=":160_2" function="internal">
        <lane id=":160_2_0" index="0" disallow="tram rail_urban rail rail_electric rail_fast ship" speed="6.59" length="9.11" shape="842.50,1152.53 843.24,1154.93 844.55,1156.53 846.44,1157.35 848.91,1157.38"/>
    </edge>
    <edge id=":160_3" function="internal">
        <lane id=":160_3_0" index="0" disallow="tram rail_urban rail rail_electric rail_fast ship" speed="3.65" length="4.67" shape="842.50,1152.53 841.90,1153.84 841.18,1154.36 840.32,1154.09 839.34,1153.04"/>
    </edge>
    <edge id=":160_4" function="internal">
        <lane id=":160_4_0" index="0" disallow="tram rail_urban rail rail_electric rail_fast ship" speed="6.49" length="9.03" shape="834.69,1159.43 837.06,1158.71 838.63,1157.40 839.39,1155.51 839.34,1153.04"/>
    </edge>
    <edge id=":160_5" function="internal">
        <lane id=":160_5_0" index="0" disallow="tram rail_urban rail rail_electric rail_fast ship" speed="13.89" length="14.37" shape="834.69,1159.43 848.91,1157.38"/>
    </edge>
    <edge id=":161_0" function="internal">
        <lane id=":161_0_0" index="0" disallow="tram rail_urban rail rail_electric rail_fast ship" speed="13.89" length="11.22" shape="726.29,1241.35 724.59,1230.26"/>
    </edge>
    <edge id=":161_1" function="internal">
        <lane id=":161_1_0" index="0" disallow="tram rail_urban rail rail_electric rail_fast ship" speed="6.44" length="9.03" shape="726.29,1241.35 726.24,1238.87 727.01,1236.99 728.60,1235.72 731.00,1235.06"/>
    </edge>
    <edge id=":164_0" function="internal">
        <lane id=":164_0_0" index="0" disallow="tram rail_urban rail rail_electric rail_fast ship" speed="13.89" length="0.29" shape="786.28,1228.00 786.57,1227.96"/>
    </edge>
    <edge id=":165_0" function="internal">
        <lane id=":165_0_0" index="0" disallow="tram rail_urban rail rail_electric rail_fast ship" speed="6.52" length="9.00" shape="876.69,1162.50 876.00,1160.13 874.72,1158.54 872.85,1157.74 870.40,1157.72"/>
    </edge>
    <edge id=":165_1" function="internal">
        <lane id=":165_1_0" index="0" disallow="tram rail_urban rail rail_electric rail_fast ship" speed="7.32" length="11.67" shape="876.69,1162.50 876.49,1158.66 877.13,1155.80 878.62,1153.92 880.95,1153.03"/>
    </edge>
    <edge id=":165_2" function="internal">
        <lane id=":165_2_0" index="0" disallow="tram rail_urban rail rail_electric rail_fast ship" speed="13.89" length="11.12" shape="881.41,1156.19 870.40,1157.72"/>
    </edge>
    <edge id=":165_3" function="internal">
        <lane id=":165_3_0" index="0" disallow="tram rail_urban rail rail_electric rail_fast ship" speed="3.65" length="1.44" shape="881.41,1156.19 880.11,1155.58"/>
    </edge>
    <edge id=":165_6" function="internal">
        <lane id=":165_6_0" index="0" disallow="tram rail_urban rail rail_electric rail_fast ship" speed="3.65" length="3.23" shape="880.11,1155.58 879.60,1154.84 879.88,1153.99 880.95,1153.03"/>
    </edge>
    <edge id=":165_4" function="internal">
        <lane id=":165_4_0" index="0" disallow="tram rail_urban rail rail_electric rail_fast ship" speed="13.89" length="11.08" shape="869.97,1154.55 880.95,1153.03"/>
    </edge>
    <edge id=":165_5" function="internal">
        <lane id=":165_5_0" index="0" disallow="tram rail_urban rail rail_electric rail_fast ship" speed="3.65" length="1.44" shape="869.97,1154.55 871.27,1155.18"/>
    </edge>
    <edge id=":165_7" function="internal">
        <lane id=":165_7_0" index="0" disallow="tram rail_urban rail rail_electric rail_fast ship" speed="3.65" length="3.23" shape="871.27,1155.18 871.77,1155.92 871.48,1156.76 870.40,1157.72"/>
    </edge>
    <edge id=":167_0" function="internal">
        <lane id=":167_0_0" index="0" disallow="tram rail_urban rail rail_electric rail_fast ship" speed="3.90" length="2.58" shape="882.48,1214.41 883.16,1214.22 883.62,1213.85 883.84,1213.31 883.84,1212.60"/>
    </edge>
    <edge id=":168_0" function="internal">
        <lane id=":168_0_0" index="0" disallow="tram rail_urban rail rail_electric rail_fast ship" speed="6.58" length="9.12" shape="1117.92,1828.99 1117.21,1826.62 1115.89,1825.04 1113.98,1824.24 1111.46,1824.22"/>
    </edge>
    <edge id=":168_1" function="internal">
        <lane id=":168_1_0" index="0" disallow="tram rail_urban rail rail_electric rail_fast ship" speed="13.89" length="14.40" shape="1117.92,1828.99 1115.79,1814.74"/>
        <lane id=":168_1_1" index="1" disallow="tram rail_urban rail rail_electric rail_fast ship" speed="13.89" length="14.40" shape="1121.08,1828.52 1118.96,1814.27"/>
    </edge>
    <edge id=":168_3" function="internal">
        <lane id=":168_3_0" index="0" disallow="tram rail_urban rail rail_electric rail_fast ship" speed="3.65" length="1.44" shape="1121.08,1828.52 1121.70,1827.21"/>
    </edge>
    <edge id=":168_11" function="internal">
        <lane id=":168_11_0" index="0" disallow="tram rail_urban rail rail_electric rail_fast ship" speed="3.65" length="3.23" shape="1121.70,1827.21 1122.43,1826.70 1123.28,1826.98 1124.25,1828.05"/>
    </edge>
    <edge id=":168_4" function="internal">
        <lane id=":168_4_0" index="0" disallow="tram rail_urban rail rail_electric rail_fast ship" speed="13.89" length="14.40" shape="1125.29,1813.33 1127.41,1827.57"/>
        <lane id=":168_4_1" index="1" disallow="tram rail_urban rail rail_electric rail_fast ship" speed="13.89" length="14.40" shape="1122.12,1813.80 1124.25,1828.05"/>
    </edge>
    <edge id=":168_6" function="internal">
        <lane id=":168_6_0" index="0" disallow="tram rail_urban rail rail_electric rail_fast ship" speed="8.64" length="3.75" shape="1122.12,1813.80 1121.96,1817.55"/>
    </edge>
    <edge id=":168_7" function="internal">
        <lane id=":168_7_0" index="0" disallow="tram rail_urban rail rail_electric rail_fast ship" speed="3.65" length="1.44" shape="1122.12,1813.80 1121.51,1815.11"/>
    </edge>
    <edge id=":168_12" function="internal">
        <lane id=":168_12_0" index="0" disallow="tram rail_urban rail rail_electric rail_fast ship" speed="8.64" length="13.20" shape="1121.96,1817.55 1121.95,1817.77 1120.12,1820.83 1116.62,1822.98 1111.46,1824.22"/>
    </edge>
    <edge id=":168_13" function="internal">
        <lane id=":168_13_0" index="0" disallow="tram rail_urban rail rail_electric rail_fast ship" speed="3.65" length="3.23" shape="1121.51,1815.11 1120.78,1815.62 1119.93,1815.34 1118.96,1814.27"/>
    </edge>
    <edge id=":168_8" function="internal">
        <lane id=":168_8_0" index="0" disallow="tram rail_urban rail rail_electric rail_fast ship" speed="6.47" length="9.03" shape="1111.04,1821.04 1113.43,1820.37 1115.02,1819.10 1115.81,1817.23 1115.79,1814.74"/>
    </edge>
    <edge id=":168_9" function="internal">
        <lane id=":168_9_0" index="0" disallow="tram rail_urban rail rail_electric rail_fast ship" speed="8.73" length="16.85" shape="1111.04,1821.04 1116.34,1820.89 1120.31,1822.01 1122.94,1824.40 1124.25,1828.05"/>
    </edge>
    <edge id=":168_10" function="internal">
        <lane id=":168_10_0" index="0" disallow="tram rail_urban rail rail_electric rail_fast ship" speed="3.65" length="4.67" shape="1111.04,1821.04 1112.34,1821.68 1112.84,1822.42 1112.55,1823.27 1111.46,1824.22"/>
    </edge>
    <edge id=":174_0" function="internal">
        <lane id=":174_0_0" index="0" disallow="tram rail_urban rail rail_electric rail_fast ship" speed="6.94" length="2.82" shape="970.72,1806.02 969.32,1803.81 969.32,1803.61"/>
    </edge>
    <edge id=":174_1" function="internal">
        <lane id=":174_1_0" index="0" disallow="tram rail_urban rail rail_electric rail_fast ship" speed="3.65" length="1.44" shape="970.72,1806.02 970.45,1804.60"/>
    </edge>
    <edge id=":174_4" function="internal">
        <lane id=":174_4_0" index="0" disallow="tram rail_urban rail rail_electric rail_fast ship" speed="6.94" length="8.73" shape="969.32,1803.61 969.34,1801.50 970.77,1799.07 973.62,1796.54"/>
    </edge>
    <edge id=":174_5" function="internal">
        <lane id=":174_5_0" index="0" disallow="tram rail_urban rail rail_electric rail_fast ship" speed="3.65" length="3.23" shape="970.45,1804.60 970.75,1803.76 971.60,1803.49 973.01,1803.78"/>
    </edge>
    <edge id=":174_2" function="internal">
        <lane id=":174_2_0" index="0" disallow="tram rail_urban rail rail_electric rail_fast ship" speed="6.60" length="8.76" shape="965.84,1795.81 967.59,1797.33 969.47,1797.96 971.48,1797.70 973.62,1796.54"/>
    </edge>
    <edge id=":174_3" function="internal">
        <lane id=":174_3_0" index="0" disallow="tram rail_urban rail rail_electric rail_fast ship" speed="13.89" length="10.72" shape="965.84,1795.81 973.01,1803.78"/>
    </edge>
    <edge id=":175_0" function="internal">
        <lane id=":175_0_0" index="0" disallow="tram rail_urban rail rail_electric rail_fast ship" speed="13.89" length="0.30" shape="595.00,1398.09 595.29,1398.04"/>
    </edge>
    <edge id=":179_0" function="internal">
        <lane id=":179_0_0" index="0" disallow="tram rail_urban rail rail_electric rail_fast ship" speed="3.91" length="2.54" shape="716.96,1178.38 716.96,1177.69 717.18,1177.15 717.62,1176.79 718.29,1176.58"/>
    </edge>
    <edge id=":180_0" function="internal">
        <lane id=":180_0_0" index="0" disallow="tram rail_urban rail rail_electric rail_fast ship" speed="13.89" length="0.10" shape="782.14,1598.62 782.14,1598.62"/>
    </edge>
    <edge id=":181_0" function="internal">
        <lane id=":181_0_0" index="0" disallow="tram rail_urban rail rail_electric rail_fast ship" speed="13.89" length="0.10" shape="407.99,1425.27 407.99,1425.27"/>
    </edge>
    <edge id=":182_0" function="internal">
        <lane id=":182_0_0" index="0" disallow="tram rail_urban rail rail_electric rail_fast ship" speed="13.89" length="0.30" shape="309.34,1439.37 309.64,1439.32"/>
    </edge>
    <edge id=":183_0" function="internal">
        <lane id=":183_0_0" index="0" disallow="tram rail_urban rail rail_electric rail_fast ship" speed="13.89" length="11.02" shape="1098.98,1705.25 1098.98,1702.00 1099.73,1699.70 1100.50,1697.49 1100.53,1694.48"/>
    </edge>
    <edge id=":183_1" function="internal">
        <lane id=":183_1_0" index="0" disallow="tram rail_urban rail rail_electric rail_fast ship" speed="3.65" length="1.44" shape="1102.14,1704.75 1102.75,1703.45"/>
    </edge>
    <edge id=":183_6" function="internal">
        <lane id=":183_6_0" index="0" disallow="tram rail_urban rail rail_electric rail_fast ship" speed="3.65" length="3.23" shape="1102.75,1703.45 1103.48,1702.93 1104.33,1703.20 1105.31,1704.26"/>
    </edge>
    <edge id=":183_2" function="internal">
        <lane id=":183_2_0" index="0" disallow="tram rail_urban rail rail_electric rail_fast ship" speed="13.89" length="10.40" shape="1103.69,1693.99 1105.31,1704.26"/>
    </edge>
    <edge id=":183_3" function="internal">
        <lane id=":183_3_0" index="0" disallow="tram rail_urban rail rail_electric rail_fast ship" speed="3.65" length="1.44" shape="1103.69,1693.99 1103.09,1695.30"/>
    </edge>
    <edge id=":183_7" function="internal">
        <lane id=":183_7_0" index="0" disallow="tram rail_urban rail rail_electric rail_fast ship" speed="3.65" length="3.23" shape="1103.09,1695.30 1102.36,1695.82 1101.51,1695.54 1100.53,1694.48"/>
    </edge>
    <edge id=":183_4" function="internal">
        <lane id=":183_4_0" index="0" disallow="tram rail_urban rail rail_electric rail_fast ship" speed="9.91" length="11.34" shape="1094.55,1703.84 1097.33,1700.78 1099.25,1698.21 1100.32,1696.10 1100.53,1694.48"/>
    </edge>
    <edge id=":183_5" function="internal">
        <lane id=":183_5_0" index="0" disallow="tram rail_urban rail rail_electric rail_fast ship" speed="6.89" length="15.28" shape="1094.55,1703.84 1098.67,1700.32 1101.84,1699.22 1104.05,1700.53 1105.31,1704.26"/>
    </edge>
    <edge id=":185_0" function="internal">
        <lane id=":185_0_0" index="0" disallow="tram rail_urban rail rail_electric rail_fast ship" speed="13.89" length="12.19" shape="819.83,307.67 818.03,295.61"/>
        <lane id=":185_0_1" index="1" disallow="tram rail_urban rail rail_electric rail_fast ship" speed="13.89" length="12.19" shape="822.99,307.19 821.20,295.14"/>
    </edge>
    <edge id=":185_2" function="internal">
        <lane id=":185_2_0" index="0" disallow="tram rail_urban rail rail_electric rail_fast ship" speed="11.93" length="1.37" shape="822.99,307.19 823.79,306.09"/>
    </edge>
    <edge id=":185_3" function="internal">
        <lane id=":185_3_0" index="0" disallow="tram rail_urban rail rail_electric rail_fast ship" speed="3.65" length="1.44" shape="822.99,307.19 823.60,305.89"/>
    </edge>
    <edge id=":185_8" function="internal">
        <lane id=":185_8_0" index="0" disallow="tram rail_urban rail rail_electric rail_fast ship" speed="11.93" length="14.05" shape="823.79,306.09 824.48,305.13 827.97,301.50 831.60,297.92 833.55,296.00"/>
    </edge>
    <edge id=":185_9" function="internal">
        <lane id=":185_9_0" index="0" disallow="tram rail_urban rail rail_electric rail_fast ship" speed="3.65" length="3.23" shape="823.60,305.89 824.33,305.37 825.18,305.65 826.15,306.72"/>
    </edge>
    <edge id=":185_4" function="internal">
        <lane id=":185_4_0" index="0" disallow="tram rail_urban rail rail_electric rail_fast ship" speed="5.52" length="9.51" shape="827.53,294.20 828.31,297.06 829.58,298.32 831.33,297.96 833.55,296.00"/>
    </edge>
    <edge id=":185_5" function="internal">
        <lane id=":185_5_0" index="0" disallow="tram rail_urban rail rail_electric rail_fast ship" speed="13.89" length="12.18" shape="827.53,294.20 829.32,306.24"/>
        <lane id=":185_5_1" index="1" disallow="tram rail_urban rail rail_electric rail_fast ship" speed="13.89" length="12.18" shape="824.36,294.67 826.15,306.72"/>
    </edge>
    <edge id=":185_7" function="internal">
        <lane id=":185_7_0" index="0" disallow="tram rail_urban rail rail_electric rail_fast ship" speed="3.65" length="1.44" shape="824.36,294.67 823.75,295.97"/>
    </edge>
    <edge id=":185_10" function="internal">
        <lane id=":185_10_0" index="0" disallow="tram rail_urban rail rail_electric rail_fast ship" speed="3.65" length="3.23" shape="823.75,295.97 823.02,296.49 822.17,296.21 821.20,295.14"/>
    </edge>
    <edge id=":186_0" function="internal">
        <lane id=":186_0_0" index="0" disallow="tram rail_urban rail rail_electric rail_fast ship" speed="3.91" length="2.51" shape="1571.77,611.01 1572.45,611.02 1572.98,611.25 1573.34,611.69 1573.55,612.34"/>
    </edge>
    <edge id=":187_0" function="internal">
        <lane id=":187_0_0" index="0" disallow="tram rail_urban rail rail_electric rail_fast ship" speed="6.74" length="7.72" shape="1167.93,729.77 1167.37,727.86 1166.32,726.41 1164.77,725.42 1162.74,724.89"/>
    </edge>
    <edge id=":187_1" function="internal">