<?xml version="1.0" encoding="UTF-8"?>

<!-- generated on 2022-10-09 19:00:21 by Eclipse SUMO netconvert Version 1.12.0
<configuration xmlns:xsi="http://www.w3.org/2001/XMLSchema-instance" xsi:noNamespaceSchemaLocation="http://sumo.dlr.de/xsd/netconvertConfiguration.xsd">

    <input>
        <sumo-net-file value="/home/svadlmat/UTC/utc/data/maps/sumo/Sydney.net.xml"/>
    </input>

    <output>
        <output-file value="/home/svadlmat/UTC/utc/data/scenarios/19_00_18_sydney/maps/networks/19_00_18_sydney_similarity_average_dissimilarity_sg.net.xml"/>
    </output>

    <processing>
        <geometry.min-radius.fix.railways value="false"/>
        <geometry.max-grade.fix value="false"/>
        <offset.disable-normalization value="true"/>
        <lefthand value="false"/>
    </processing>

    <edge_removal>
        <keep-edges.explicit value="447,428,427,99,535,832,89,827,445,333,210,563,759,989,990,551,585,426,628,331,123,233,341,51,829,415,425,404,332,513,988,872,12,211,379,760,9,750,512,511,287,831,890,82,430,346,826,213,552,965,524,897,507,769,970,488,424,502,527,93,828,526,212,1005,98,116,10,342,550,885,627,318,741,515,508,410,423,587,375,618,378,958,232,758,984,886,968,774,11,964,288,525,1041,399,985,742,111,209,957,400,751,411,124,92,523,967,766,1002,1004,403,1003,739,891"/>
    </edge_removal>

    <junctions>
        <no-turnarounds value="true"/>
        <junctions.corner-detail value="5"/>
        <junctions.limit-turn-speed value="5.5"/>
        <rectangular-lane-cut value="false"/>
    </junctions>

    <pedestrian>
        <walkingareas value="false"/>
    </pedestrian>

    <report>
        <aggregate-warnings value="5"/>
    </report>

</configuration>
-->

<net version="1.9" junctionCornerDetail="5" limitTurnSpeed="5.50" xmlns:xsi="http://www.w3.org/2001/XMLSchema-instance" xsi:noNamespaceSchemaLocation="http://sumo.dlr.de/xsd/net_file.xsd">

    <location netOffset="-336586.08,3754670.31" convBoundary="160.64,12.34,1518.75,2196.77" origBoundary="151.232525,-33.920080,151.266296,-33.899237" projParameter="+proj=utm +zone=56 +ellps=WGS84 +datum=WGS84 +units=m +no_defs"/>

    <type id="highway.bridleway" priority="1" numLanes="1" speed="2.78" allow="pedestrian" oneway="1" width="2.00"/>
    <type id="highway.bus_guideway" priority="1" numLanes="1" speed="27.78" allow="bus" oneway="1"/>
    <type id="highway.cycleway" priority="1" numLanes="1" speed="8.33" allow="bicycle" oneway="0" width="1.00"/>
    <type id="highway.footway" priority="1" numLanes="1" speed="2.78" allow="pedestrian" oneway="1" width="2.00"/>
    <type id="highway.ford" priority="1" numLanes="1" speed="2.78" allow="army" oneway="0"/>
    <type id="highway.living_street" priority="2" numLanes="1" speed="2.78" disallow="tram rail_urban rail rail_electric rail_fast ship" oneway="0"/>
    <type id="highway.motorway" priority="14" numLanes="2" speed="39.44" allow="private emergency authority army vip passenger hov taxi bus coach delivery truck trailer motorcycle evehicle custom1 custom2" oneway="1"/>
    <type id="highway.motorway_link" priority="9" numLanes="1" speed="22.22" allow="private emergency authority army vip passenger hov taxi bus coach delivery truck trailer motorcycle evehicle custom1 custom2" oneway="1"/>
    <type id="highway.path" priority="1" numLanes="1" speed="2.78" allow="pedestrian bicycle" oneway="0" width="2.00"/>
    <type id="highway.pedestrian" priority="1" numLanes="1" speed="2.78" allow="pedestrian" oneway="1" width="2.00"/>
    <type id="highway.primary" priority="12" numLanes="2" speed="27.78" disallow="tram rail_urban rail rail_electric rail_fast ship" oneway="0"/>
    <type id="highway.primary_link" priority="7" numLanes="1" speed="22.22" disallow="tram rail_urban rail rail_electric rail_fast ship" oneway="0"/>
    <type id="highway.raceway" priority="15" numLanes="2" speed="83.33" allow="vip" oneway="0"/>
    <type id="highway.residential" priority="3" numLanes="1" speed="13.89" disallow="tram rail_urban rail rail_electric rail_fast ship" oneway="0"/>
    <type id="highway.secondary" priority="11" numLanes="1" speed="27.78" disallow="tram rail_urban rail rail_electric rail_fast ship" oneway="0"/>
    <type id="highway.secondary_link" priority="6" numLanes="1" speed="22.22" disallow="tram rail_urban rail rail_electric rail_fast ship" oneway="0"/>
    <type id="highway.service" priority="1" numLanes="1" speed="5.56" allow="pedestrian delivery bicycle" oneway="0"/>
    <type id="highway.stairs" priority="1" numLanes="1" speed="1.39" allow="pedestrian" oneway="1" width="2.00"/>
    <type id="highway.step" priority="1" numLanes="1" speed="1.39" allow="pedestrian" oneway="1" width="2.00"/>
    <type id="highway.steps" priority="1" numLanes="1" speed="1.39" allow="pedestrian" oneway="1" width="2.00"/>
    <type id="highway.tertiary" priority="10" numLanes="1" speed="22.22" disallow="tram rail_urban rail rail_electric rail_fast ship" oneway="0"/>
    <type id="highway.tertiary_link" priority="5" numLanes="1" speed="22.22" disallow="tram rail_urban rail rail_electric rail_fast ship" oneway="0"/>
    <type id="highway.track" priority="1" numLanes="1" speed="5.56" allow="pedestrian motorcycle moped bicycle" oneway="0"/>
    <type id="highway.trunk" priority="13" numLanes="2" speed="27.78" disallow="pedestrian bicycle tram rail_urban rail rail_electric rail_fast ship" oneway="0"/>
    <type id="highway.trunk_link" priority="8" numLanes="1" speed="22.22" disallow="pedestrian bicycle tram rail_urban rail rail_electric rail_fast ship" oneway="0"/>
    <type id="highway.unclassified" priority="4" numLanes="1" speed="13.89" disallow="tram rail_urban rail rail_electric rail_fast ship" oneway="0"/>
    <type id="highway.unsurfaced" priority="1" numLanes="1" speed="8.33" disallow="tram rail_urban rail rail_electric rail_fast ship" oneway="0"/>
    <type id="railway.highspeed" priority="21" numLanes="1" speed="69.44" allow="rail_fast" oneway="1"/>
    <type id="railway.light_rail" priority="19" numLanes="1" speed="27.78" allow="rail_urban" oneway="1"/>
    <type id="railway.preserved" priority="16" numLanes="1" speed="27.78" allow="rail" oneway="1"/>
    <type id="railway.rail" priority="20" numLanes="1" speed="44.44" allow="rail" oneway="1"/>
    <type id="railway.subway" priority="18" numLanes="1" speed="27.78" allow="rail_urban" oneway="1"/>
    <type id="railway.tram" priority="17" numLanes="1" speed="13.89" allow="tram" oneway="1"/>

    <edge id=":102_0" function="internal">
        <lane id=":102_0_0" index="0" disallow="tram rail_urban rail rail_electric rail_fast ship" speed="3.90" length="2.63" shape="1138.29,482.71 1138.98,482.50 1139.43,482.12 1139.64,481.57 1139.61,480.84"/>
    </edge>
    <edge id=":109_0" function="internal">
        <lane id=":109_0_0" index="0" disallow="tram rail_urban rail rail_electric rail_fast ship" speed="3.90" length="2.59" shape="1134.48,453.06 1134.45,452.35 1134.65,451.80 1135.09,451.42 1135.77,451.19"/>
    </edge>
    <edge id=":112_0" function="internal">
        <lane id=":112_0_0" index="0" disallow="tram rail_urban rail rail_electric rail_fast ship" speed="3.90" length="2.61" shape="1405.71,303.30 1405.68,302.59 1405.89,302.04 1406.34,301.66 1407.02,301.44"/>
    </edge>
    <edge id=":113_0" function="internal">
        <lane id=":113_0_0" index="0" disallow="tram rail_urban rail rail_electric rail_fast ship" speed="27.78" length="0.30" shape="1489.79,115.20 1489.75,114.90"/>
    </edge>
    <edge id=":116_0" function="internal">
        <lane id=":116_0_0" index="0" disallow="tram rail_urban rail rail_electric rail_fast ship" speed="13.89" length="0.29" shape="444.08,626.20 444.03,625.92"/>
    </edge>
    <edge id=":160_0" function="internal">
        <lane id=":160_0_0" index="0" disallow="tram rail_urban rail rail_electric rail_fast ship" speed="3.91" length="2.53" shape="842.28,1161.50 841.59,1161.49 841.06,1161.27 840.70,1160.82 840.49,1160.16"/>
    </edge>
    <edge id=":165_0" function="internal">
        <lane id=":165_0_0" index="0" disallow="tram rail_urban rail rail_electric rail_fast ship" speed="13.89" length="0.29" shape="877.63,1156.74 877.34,1156.78"/>
    </edge>
    <edge id=":168_0" function="internal">
        <lane id=":168_0_0" index="0" disallow="tram rail_urban rail rail_electric rail_fast ship" speed="13.89" length="11.20" shape="1117.45,1825.82 1115.79,1814.74"/>
        <lane id=":168_0_1" index="1" disallow="tram rail_urban rail rail_electric rail_fast ship" speed="13.89" length="11.20" shape="1120.61,1825.35 1118.96,1814.27"/>
    </edge>
    <edge id=":168_2" function="internal">
        <lane id=":168_2_0" index="0" disallow="tram rail_urban rail rail_electric rail_fast ship" speed="3.65" length="4.67" shape="1120.61,1825.35 1121.22,1824.05 1121.96,1823.53 1122.81,1823.81 1123.78,1824.88"/>
    </edge>
    <edge id=":168_3" function="internal">
        <lane id=":168_3_0" index="0" disallow="tram rail_urban rail rail_electric rail_fast ship" speed="6.47" length="9.03" shape="1111.04,1821.04 1113.43,1820.37 1115.02,1819.10 1115.81,1817.23 1115.79,1814.74"/>
    </edge>
    <edge id=":168_4" function="internal">
        <lane id=":168_4_0" index="0" disallow="tram rail_urban rail rail_electric rail_fast ship" speed="8.15" length="14.56" shape="1111.04,1821.04 1116.31,1820.70 1120.19,1821.22 1122.68,1822.61 1123.78,1824.88"/>
    </edge>
    <edge id=":174_0" function="internal">
        <lane id=":174_0_0" index="0" disallow="tram rail_urban rail rail_electric rail_fast ship" speed="13.89" length="0.11" shape="970.10,1800.80 970.17,1800.88"/>
    </edge>
    <edge id=":183_0" function="internal">
        <lane id=":183_0_0" index="0" disallow="tram rail_urban rail rail_electric rail_fast ship" speed="13.89" length="8.81" shape="1098.55,1702.49 1098.66,1699.98 1099.51,1698.29 1100.36,1696.60 1100.47,1694.09"/>
    </edge>
    <edge id=":185_0" function="internal">
        <lane id=":185_0_0" index="0" disallow="tram rail_urban rail rail_electric rail_fast ship" speed="13.89" length="11.20" shape="820.53,312.39 818.88,301.31"/>
        <lane id=":185_0_1" index="1" disallow="tram rail_urban rail rail_electric rail_fast ship" speed="13.89" length="11.20" shape="823.70,311.91 822.04,300.84"/>
    </edge>
    <edge id=":185_2" function="internal">
        <lane id=":185_2_0" index="0" disallow="tram rail_urban rail rail_electric rail_fast ship" speed="3.65" length="1.44" shape="823.70,311.91 824.31,310.61"/>
    </edge>
    <edge id=":185_8" function="internal">
        <lane id=":185_8_0" index="0" disallow="tram rail_urban rail rail_electric rail_fast ship" speed="3.65" length="3.23" shape="824.31,310.61 825.04,310.09 825.89,310.37 826.86,311.44"/>
    </edge>
    <edge id=":185_3" function="internal">
        <lane id=":185_3_0" index="0" disallow="tram rail_urban rail rail_electric rail_fast ship" speed="13.89" length="11.19" shape="828.38,299.90 830.03,310.96"/>
        <lane id=":185_3_1" index="1" disallow="tram rail_urban rail rail_electric rail_fast ship" speed="13.89" length="11.19" shape="825.21,300.37 826.86,311.44"/>
    </edge>
    <edge id=":185_5" function="internal">
        <lane id=":185_5_0" index="0" disallow="tram rail_urban rail rail_electric rail_fast ship" speed="3.65" length="1.44" shape="825.21,300.37 824.60,301.68"/>
    </edge>
    <edge id=":185_9" function="internal">
        <lane id=":185_9_0" index="0" disallow="tram rail_urban rail rail_electric rail_fast ship" speed="3.65" length="3.23" shape="824.60,301.68 823.86,302.19 823.01,301.91 822.04,300.84"/>
    </edge>
    <edge id=":185_6" function="internal">
        <lane id=":185_6_0" index="0" disallow="tram rail_urban rail rail_electric rail_fast ship" speed="6.49" length="9.03" shape="814.14,307.64 816.52,306.95 818.11,305.67 818.89,303.79 818.88,301.31"/>
    </edge>
    <edge id=":185_7" function="internal">
        <lane id=":185_7_0" index="0" disallow="tram rail_urban rail rail_electric rail_fast ship" speed="8.13" length="14.56" shape="814.14,307.64 819.40,307.26 823.27,307.76 825.76,309.16 826.86,311.44"/>
    </edge>
    <edge id=":187_0" function="internal">
        <lane id=":187_0_0" index="0" disallow="tram rail_urban rail rail_electric rail_fast ship" speed="3.93" length="2.21" shape="1167.46,726.56 1167.29,726.00 1166.99,725.58 1166.55,725.31 1165.97,725.20"/>
    </edge>
    <edge id=":188_0" function="internal">
        <lane id=":188_0_0" index="0" disallow="tram rail_urban rail rail_electric rail_fast ship" speed="27.78" length="10.17" shape="1142.97,720.80 1133.03,718.65"/>
    </edge>
    <edge id=":188_1" function="internal">
        <lane id=":188_1_0" index="0" disallow="tram rail_urban rail rail_electric rail_fast ship" speed="6.67" length="8.51" shape="1142.97,720.80 1140.92,720.02 1139.51,718.70 1138.74,716.85 1138.61,714.47"/>
    </edge>
    <edge id=":189_0" function="internal">
        <lane id=":189_0_0" index="0" disallow="tram rail_urban rail rail_electric rail_fast ship" speed="13.89" length="11.28" shape="1109.13,1211.33 1111.87,1212.97 1113.80,1214.02 1115.85,1214.78 1118.94,1215.51"/>
        <lane id=":189_0_1" index="1" disallow="tram rail_urban rail rail_electric rail_fast ship" speed="13.89" length="11.28" shape="1107.51,1214.08 1110.51,1215.88 1112.64,1217.03 1114.90,1217.85 1118.29,1218.65"/>
    </edge>
    <edge id=":189_2" function="internal">
        <lane id=":189_2_0" index="0" disallow="tram rail_urban rail rail_electric rail_fast ship" speed="18.05" length="12.27" shape="1106.10,1218.97 1109.27,1218.81 1111.83,1218.40 1114.57,1218.19 1118.29,1218.65"/>
    </edge>
    <edge id=":190_0" function="internal">
        <lane id=":190_0_0" index="0" disallow="tram rail_urban rail rail_electric rail_fast ship" speed="15.28" length="0.30" shape="605.96,792.68 606.26,792.62"/>
        <lane id=":190_0_1" index="1" disallow="tram rail_urban rail rail_electric rail_fast ship" speed="15.28" length="0.30" shape="606.57,795.82 606.86,795.76"/>
    </edge>
    <edge id=":192_0" function="internal">
        <lane id=":192_0_0" index="0" disallow="tram rail_urban rail rail_electric rail_fast ship" speed="3.90" length="2.59" shape="1068.85,724.17 1068.14,724.18 1067.59,723.97 1067.22,723.52 1067.01,722.84"/>
    </edge>
    <edge id=":194_0" function="internal">
        <lane id=":194_0_0" index="0" disallow="tram rail_urban rail rail_electric rail_fast ship" speed="13.89" length="11.24" shape="876.02,664.71 874.26,653.60"/>
        <lane id=":194_0_1" index="1" disallow="tram rail_urban rail rail_electric rail_fast ship" speed="13.89" length="11.24" shape="879.18,664.20 877.42,653.10"/>
    </edge>
    <edge id=":194_2" function="internal">
        <lane id=":194_2_0" index="0" disallow="tram rail_urban rail rail_electric rail_fast ship" speed="3.65" length="1.44" shape="879.18,664.20 879.78,662.89"/>
    </edge>
    <edge id=":194_8" function="internal">
        <lane id=":194_8_0" index="0" disallow="tram rail_urban rail rail_electric rail_fast ship" speed="3.65" length="3.23" shape="879.78,662.89 880.51,662.37 881.36,662.64 882.34,663.69"/>
    </edge>
    <edge id=":194_3" function="internal">
        <lane id=":194_3_0" index="0" disallow="tram rail_urban rail rail_electric rail_fast ship" speed="6.48" length="9.03" shape="890.16,656.81 887.79,657.52 886.22,658.82 885.46,660.71 885.50,663.19"/>
    </edge>
    <edge id=":194_4" function="internal">
        <lane id=":194_4_0" index="0" disallow="tram rail_urban rail rail_electric rail_fast ship" speed="8.12" length="14.57" shape="890.16,656.81 884.91,657.24 881.03,656.77 878.54,655.39 877.42,653.10"/>
    </edge>
    <edge id=":194_5" function="internal">
        <lane id=":194_5_0" index="0" disallow="tram rail_urban rail rail_electric rail_fast ship" speed="13.89" length="11.21" shape="883.74,652.12 885.50,663.19"/>
        <lane id=":194_5_1" index="1" disallow="tram rail_urban rail rail_electric rail_fast ship" speed="13.89" length="11.21" shape="880.58,652.61 882.34,663.69"/>
    </edge>
    <edge id=":194_7" function="internal">
        <lane id=":194_7_0" index="0" disallow="tram rail_urban rail rail_electric rail_fast ship" speed="3.65" length="1.44" shape="880.58,652.61 879.98,653.92"/>
    </edge>
    <edge id=":194_9" function="internal">
        <lane id=":194_9_0" index="0" disallow="tram rail_urban rail rail_electric rail_fast ship" speed="3.65" length="3.23" shape="879.98,653.92 879.25,654.44 878.40,654.17 877.42,653.10"/>
    </edge>
    <edge id=":195_0" function="internal">
        <lane id=":195_0_0" index="0" disallow="tram rail_urban rail rail_electric rail_fast ship" speed="13.89" length="0.27" shape="979.69,643.40 979.41,643.44"/>
    </edge>
    <edge id=":196_0" function="internal">
        <lane id=":196_0_0" index="0" disallow="tram rail_urban rail rail_electric rail_fast ship" speed="13.89" length="0.30" shape="1029.07,634.86 1028.77,634.92"/>
    </edge>
    <edge id=":197_0" function="internal">
        <lane id=":197_0_0" index="0" disallow="tram rail_urban rail rail_electric rail_fast ship" speed="6.46" length="9.03" shape="1053.47,636.26 1052.75,633.89 1051.44,632.34 1049.54,631.60 1047.06,631.68"/>
    </edge>
    <edge id=":197_1" function="internal">
        <lane id=":197_1_0" index="0" disallow="tram rail_urban rail rail_electric rail_fast ship" speed="13.89" length="11.23" shape="1058.13,629.79 1047.06,631.68"/>
    </edge>
    <edge id=":198_0" function="internal">
        <lane id=":198_0_0" index="0" disallow="tram rail_urban rail rail_electric rail_fast ship" speed="13.89" length="0.28" shape="1112.29,621.16 1112.01,621.20"/>
    </edge>
    <edge id=":199_0" function="internal">
        <lane id=":199_0_0" index="0" disallow="tram rail_urban rail rail_electric rail_fast ship" speed="13.89" length="0.62" shape="1118.43,620.46 1118.26,620.41 1118.13,620.38 1118.01,620.37 1117.82,620.39"/>
    </edge>
    <edge id=":211_0" function="internal">
        <lane id=":211_0_0" index="0" disallow="tram rail_urban rail rail_electric rail_fast ship" speed="22.22" length="0.30" shape="1370.78,1363.82 1370.68,1364.10"/>
    </edge>
    <edge id=":216_0" function="internal">
        <lane id=":216_0_0" index="0" disallow="tram rail_urban rail rail_electric rail_fast ship" speed="13.89" length="0.23" shape="1083.37,1301.65 1083.34,1301.42"/>
    </edge>
    <edge id=":216_1" function="internal">
        <lane id=":216_1_0" index="0" disallow="tram rail_urban rail rail_electric rail_fast ship" speed="3.65" length="2.34" shape="1083.37,1301.65 1084.01,1300.35 1084.75,1299.86"/>
    </edge>
    <edge id=":216_4" function="internal">
        <lane id=":216_4_0" index="0" disallow="tram rail_urban rail rail_electric rail_fast ship" speed="3.65" length="2.34" shape="1084.75,1299.86 1085.60,1300.15 1086.54,1301.24"/>
    </edge>
    <edge id=":216_2" function="internal">
        <lane id=":216_2_0" index="0" disallow="tram rail_urban rail rail_electric rail_fast ship" speed="13.89" length="0.31" shape="1086.50,1300.93 1086.54,1301.24"/>
    </edge>
    <edge id=":216_3" function="internal">
        <lane id=":216_3_0" index="0" disallow="tram rail_urban rail rail_electric rail_fast ship" speed="3.65" length="2.34" shape="1086.50,1300.93 1085.89,1302.24 1085.16,1302.76"/>
    </edge>
    <edge id=":216_5" function="internal">
        <lane id=":216_5_0" index="0" disallow="tram rail_urban rail rail_electric rail_fast ship" speed="3.65" length="2.34" shape="1085.16,1302.76 1084.31,1302.49 1083.34,1301.42"/>
    </edge>
    <edge id=":220_0" function="internal">
        <lane id=":220_0_0" index="0" disallow="tram rail_urban rail rail_electric rail_fast ship" speed="6.75" length="8.35" shape="1193.31,1235.66 1195.36,1236.13 1197.23,1235.84 1198.92,1234.78 1200.43,1232.96"/>
    </edge>
    <edge id=":220_1" function="internal">
        <lane id=":220_1_0" index="0" disallow="tram rail_urban rail rail_electric rail_fast ship" speed="13.89" length="9.85" shape="1193.31,1235.66 1202.46,1239.30"/>
    </edge>
    <edge id=":221_0" function="internal">
        <lane id=":221_0_0" index="0" disallow="tram rail_urban rail rail_electric rail_fast ship" speed="4.34" length="1.11" shape="1239.56,1171.35 1239.72,1171.06 1239.79,1170.84 1239.80,1170.61 1239.75,1170.29"/>
    </edge>
    <edge id=":226_0" function="internal">
        <lane id=":226_0_0" index="0" disallow="tram rail_urban rail rail_electric rail_fast ship" speed="16.67" length="0.30" shape="949.41,857.79 949.27,857.54"/>
        <lane id=":226_0_1" index="1" disallow="tram rail_urban rail rail_electric rail_fast ship" speed="16.67" length="0.30" shape="952.19,856.20 952.04,855.94"/>
    </edge>
    <edge id=":226_2" function="internal">
        <lane id=":226_2_0" index="0" disallow="tram rail_urban rail rail_electric rail_fast ship" speed="3.65" length="2.34" shape="952.19,856.20 952.28,854.76 952.78,854.01"/>
    </edge>
    <edge id=":226_6" function="internal">
        <lane id=":226_6_0" index="0" disallow="tram rail_urban rail rail_electric rail_fast ship" speed="3.65" length="2.34" shape="952.78,854.01 953.67,853.96 954.96,854.60"/>
    </edge>
    <edge id=":226_3" function="internal">
        <lane id=":226_3_0" index="0" disallow="tram rail_urban rail rail_electric rail_fast ship" speed="16.67" length="0.30" shape="957.58,852.74 957.73,853.01"/>
        <lane id=":226_3_1" index="1" disallow="tram rail_urban rail rail_electric rail_fast ship" speed="16.67" length="0.30" shape="954.81,854.34 954.96,854.60"/>
    </edge>
    <edge id=":226_5" function="internal">
        <lane id=":226_5_0" index="0" disallow="tram rail_urban rail rail_electric rail_fast ship" speed="3.65" length="2.34" shape="954.81,854.34 954.72,855.78 954.22,856.53"/>
    </edge>
    <edge id=":226_7" function="internal">
        <lane id=":226_7_0" index="0" disallow="tram rail_urban rail rail_electric rail_fast ship" speed="3.65" length="2.34" shape="954.22,856.53 953.33,856.58 952.04,855.94"/>
    </edge>
    <edge id=":227_0" function="internal">
        <lane id=":227_0_0" index="0" disallow="tram rail_urban rail rail_electric rail_fast ship" speed="13.89" length="11.24" shape="1183.42,822.13 1181.44,811.06"/>
    </edge>
    <edge id=":227_1" function="internal">
        <lane id=":227_1_0" index="0" disallow="tram rail_urban rail rail_electric rail_fast ship" speed="6.45" length="9.03" shape="1176.91,817.50 1179.29,816.76 1180.83,815.44 1181.55,813.54 1181.44,811.06"/>
    </edge>
    <edge id=":231_0" function="internal">
        <lane id=":231_0_0" index="0" disallow="tram rail_urban rail rail_electric rail_fast ship" speed="13.89" length="0.25" shape="801.60,196.17 801.57,195.95"/>
        <lane id=":231_0_1" index="1" disallow="tram rail_urban rail rail_electric rail_fast ship" speed="13.89" length="0.25" shape="804.76,195.67 804.72,195.40"/>
    </edge>
    <edge id=":231_2" function="internal">
        <lane id=":231_2_0" index="0" disallow="tram rail_urban rail rail_electric rail_fast ship" speed="3.65" length="2.34" shape="804.76,195.67 805.36,194.36 806.09,193.83"/>
    </edge>
    <edge id=":231_6" function="internal">
        <lane id=":231_6_0" index="0" disallow="tram rail_urban rail rail_electric rail_fast ship" speed="3.65" length="2.34" shape="806.09,193.83 806.94,194.10 807.92,195.16"/>
    </edge>
    <edge id=":231_3" function="internal">
        <lane id=":231_3_0" index="0" disallow="tram rail_urban rail rail_electric rail_fast ship" speed="13.89" length="0.33" shape="811.02,194.31 811.08,194.66"/>
        <lane id=":231_3_1" index="1" disallow="tram rail_urban rail rail_electric rail_fast ship" speed="13.89" length="0.33" shape="807.87,194.85 807.92,195.16"/>
    </edge>
    <edge id=":231_5" function="internal">
        <lane id=":231_5_0" index="0" disallow="tram rail_urban rail rail_electric rail_fast ship" speed="3.65" length="2.34" shape="807.87,194.85 807.29,196.17 806.57,196.70"/>
    </edge>
    <edge id=":231_7" function="internal">
        <lane id=":231_7_0" index="0" disallow="tram rail_urban rail rail_electric rail_fast ship" speed="3.65" length="2.34" shape="806.57,196.70 805.71,196.45 804.72,195.40"/>
    </edge>
    <edge id=":241_0" function="internal">
        <lane id=":241_0_0" index="0" disallow="tram rail_urban rail rail_electric rail_fast ship" speed="3.65" length="4.67" shape="773.77,12.61 774.36,11.29 775.08,10.76 775.94,11.02 776.93,12.07"/>
    </edge>
    <edge id=":266_0" function="internal">
        <lane id=":266_0_0" index="0" disallow="tram rail_urban rail rail_electric rail_fast ship" speed="3.90" length="2.60" shape="1079.12,834.95 1079.10,834.24 1079.32,833.69 1079.76,833.31 1080.44,833.10"/>
    </edge>
    <edge id=":269_0" function="internal">
        <lane id=":269_0_0" index="0" disallow="tram rail_urban rail rail_electric rail_fast ship" speed="3.90" length="2.58" shape="1097.12,948.20 1097.79,947.98 1098.24,947.60 1098.45,947.05 1098.43,946.35"/>
    </edge>
    <edge id=":270_0" function="internal">
        <lane id=":270_0_0" index="0" disallow="tram rail_urban rail rail_electric rail_fast ship" speed="3.90" length="2.62" shape="814.58,991.92 814.57,991.20 814.79,990.65 815.25,990.28 815.94,990.08"/>
    </edge>
    <edge id=":271_0" function="internal">
        <lane id=":271_0_0" index="0" disallow="tram rail_urban rail rail_electric rail_fast ship" speed="16.67" length="0.30" shape="782.11,763.18 782.40,763.14"/>
        <lane id=":271_0_1" index="1" disallow="tram rail_urban rail rail_electric rail_fast ship" speed="16.67" length="0.30" shape="782.60,766.34 782.90,766.30"/>
    </edge>
    <edge id=":273_0" function="internal">
        <lane id=":273_0_0" index="0" disallow="tram rail_urban rail rail_electric rail_fast ship" speed="3.90" length="2.60" shape="878.00,1381.78 877.31,1381.97 876.85,1382.34 876.62,1382.88 876.62,1383.59"/>
    </edge>
    <edge id=":274_0" function="internal">
        <lane id=":274_0_0" index="0" disallow="tram rail_urban rail rail_electric rail_fast ship" speed="22.22" length="0.30" shape="968.99,1369.72 968.70,1369.76"/>
    </edge>
    <edge id=":277_0" function="internal">
        <lane id=":277_0_0" index="0" disallow="tram rail_urban rail rail_electric rail_fast ship" speed="13.89" length="0.23" shape="907.83,1718.83 907.84,1718.90 907.85,1718.95 907.86,1719.00 907.88,1719.06"/>
    </edge>
    <edge id=":278_0" function="internal">
        <lane id=":278_0_0" index="0" disallow="tram rail_urban rail rail_electric rail_fast ship" speed="13.89" length="0.29" shape="1092.81,1645.26 1092.77,1644.98"/>
    </edge>
    <edge id=":283_0" function="internal">
        <lane id=":283_0_0" index="0" disallow="tram rail_urban rail rail_electric rail_fast ship" speed="3.90" length="2.63" shape="1356.62,1864.65 1356.65,1865.37 1356.44,1865.92 1355.99,1866.31 1355.30,1866.52"/>
    </edge>
    <edge id=":286_0" function="internal">
        <lane id=":286_0_0" index="0" disallow="tram rail_urban rail rail_electric rail_fast ship" speed="13.89" length="0.29" shape="1340.82,1768.37 1340.86,1768.66"/>
    </edge>
    <edge id=":290_0" function="internal">
        <lane id=":290_0_0" index="0" disallow="tram rail_urban rail rail_electric rail_fast ship" speed="22.22" length="0.10" shape="1346.31,1432.68 1346.31,1432.68"/>
    </edge>
    <edge id=":296_0" function="internal">
        <lane id=":296_0_0" index="0" disallow="tram rail_urban rail rail_electric rail_fast ship" speed="16.67" length="0.25" shape="512.50,820.54 512.81,820.45"/>
        <lane id=":296_0_1" index="1" disallow="tram rail_urban rail rail_electric rail_fast ship" speed="16.67" length="0.25" shape="513.45,823.60 513.63,823.54"/>
    </edge>
    <edge id=":297_0" function="internal">
        <lane id=":297_0_0" index="0" disallow="tram rail_urban rail rail_electric rail_fast ship" speed="13.89" length="0.30" shape="830.48,1098.04 830.44,1097.74"/>
    </edge>
    <edge id=":304_0" function="internal">
        <lane id=":304_0_0" index="0" disallow="tram rail_urban rail rail_electric rail_fast ship" speed="13.89" length="0.36" shape="1030.58,1171.80 1030.48,1171.76 1030.41,1171.73 1030.34,1171.71 1030.24,1171.69"/>
    </edge>
    <edge id=":308_0" function="internal">
        <lane id=":308_0_0" index="0" disallow="tram rail_urban rail rail_electric rail_fast ship" speed="13.89" length="8.72" shape="1132.32,1218.30 1134.61,1219.29 1135.89,1220.67 1137.18,1222.02 1139.49,1222.93"/>
    </edge>
    <edge id=":315_0" function="internal">
        <lane id=":315_0_0" index="0" disallow="tram rail_urban rail rail_electric rail_fast ship" speed="3.65" length="4.67" shape="866.27,2196.72 865.51,2197.94 864.72,2198.37 863.91,2198.00 863.07,2196.82"/>
    </edge>
    <edge id=":318_0" function="internal">
        <lane id=":318_0_0" index="0" disallow="tram rail_urban rail rail_electric rail_fast ship" speed="16.67" length="0.30" shape="1043.43,1064.24 1043.39,1063.94"/>
        <lane id=":318_0_1" index="1" disallow="tram rail_urban rail rail_electric rail_fast ship" speed="16.67" length="0.30" shape="1046.59,1063.73 1046.55,1063.43"/>
    </edge>
    <edge id=":318_2" function="internal">
        <lane id=":318_2_0" index="0" disallow="tram rail_urban rail rail_electric rail_fast ship" speed="16.67" length="0.30" shape="1052.87,1062.43 1052.91,1062.72"/>
        <lane id=":318_2_1" index="1" disallow="tram rail_urban rail rail_electric rail_fast ship" speed="16.67" length="0.30" shape="1049.71,1062.93 1049.75,1063.23"/>
    </edge>
    <edge id=":331_0" function="internal">
        <lane id=":331_0_0" index="0" disallow="tram rail_urban rail rail_electric rail_fast ship" speed="13.89" length="8.44" shape="1334.48,1273.84 1336.65,1274.82 1337.79,1276.21 1338.91,1277.67 1341.03,1278.84"/>
    </edge>
    <edge id=":333_0" function="internal">