<?xml version="1.0" encoding="UTF-8"?>

<!-- generated on 2022-10-09 19:00:22 by Eclipse SUMO netconvert Version 1.12.0
<configuration xmlns:xsi="http://www.w3.org/2001/XMLSchema-instance" xsi:noNamespaceSchemaLocation="http://sumo.dlr.de/xsd/netconvertConfiguration.xsd">

    <input>
        <sumo-net-file value="/home/svadlmat/UTC/utc/data/maps/sumo/Sydney.net.xml"/>
    </input>

    <output>
        <output-file value="/home/svadlmat/UTC/utc/data/scenarios/19_00_18_sydney/maps/networks/19_00_18_sydney_similarity_minimal_similarity_sg.net.xml"/>
    </output>

    <processing>
        <geometry.min-radius.fix.railways value="false"/>
        <geometry.max-grade.fix value="false"/>
        <offset.disable-normalization value="true"/>
        <lefthand value="false"/>
    </processing>

    <edge_removal>
        <keep-edges.explicit value="447,615,428,427,99,535,832,448,827,20,1038,333,210,563,759,989,990,551,959,585,426,628,969,331,233,341,283,51,829,884,1006,768,415,425,404,332,513,988,1007,12,211,760,9,1013,750,583,512,338,292,511,287,831,890,516,82,430,346,826,18,213,62,552,84,965,524,897,507,769,488,424,502,527,828,526,212,1005,98,116,10,342,550,885,627,318,641,741,15,515,508,410,423,587,958,232,449,19,758,984,886,968,774,11,964,288,525,985,399,742,111,209,957,400,751,411,523,967,17,766,1002,1004,403,16,1003,739,891"/>
    </edge_removal>

    <junctions>
        <no-turnarounds value="true"/>
        <junctions.corner-detail value="5"/>
        <junctions.limit-turn-speed value="5.5"/>
        <rectangular-lane-cut value="false"/>
    </junctions>

    <pedestrian>
        <walkingareas value="false"/>
    </pedestrian>

    <report>
        <aggregate-warnings value="5"/>
    </report>

</configuration>
-->

<net version="1.9" junctionCornerDetail="5" limitTurnSpeed="5.50" xmlns:xsi="http://www.w3.org/2001/XMLSchema-instance" xsi:noNamespaceSchemaLocation="http://sumo.dlr.de/xsd/net_file.xsd">

    <location netOffset="-336586.08,3754670.31" convBoundary="160.64,12.34,1518.75,2196.77" origBoundary="151.232525,-33.920080,151.266296,-33.899237" projParameter="+proj=utm +zone=56 +ellps=WGS84 +datum=WGS84 +units=m +no_defs"/>

    <type id="highway.bridleway" priority="1" numLanes="1" speed="2.78" allow="pedestrian" oneway="1" width="2.00"/>
    <type id="highway.bus_guideway" priority="1" numLanes="1" speed="27.78" allow="bus" oneway="1"/>
    <type id="highway.cycleway" priority="1" numLanes="1" speed="8.33" allow="bicycle" oneway="0" width="1.00"/>
    <type id="highway.footway" priority="1" numLanes="1" speed="2.78" allow="pedestrian" oneway="1" width="2.00"/>
    <type id="highway.ford" priority="1" numLanes="1" speed="2.78" allow="army" oneway="0"/>
    <type id="highway.living_street" priority="2" numLanes="1" speed="2.78" disallow="tram rail_urban rail rail_electric rail_fast ship" oneway="0"/>
    <type id="highway.motorway" priority="14" numLanes="2" speed="39.44" allow="private emergency authority army vip passenger hov taxi bus coach delivery truck trailer motorcycle evehicle custom1 custom2" oneway="1"/>
    <type id="highway.motorway_link" priority="9" numLanes="1" speed="22.22" allow="private emergency authority army vip passenger hov taxi bus coach delivery truck trailer motorcycle evehicle custom1 custom2" oneway="1"/>
    <type id="highway.path" priority="1" numLanes="1" speed="2.78" allow="pedestrian bicycle" oneway="0" width="2.00"/>
    <type id="highway.pedestrian" priority="1" numLanes="1" speed="2.78" allow="pedestrian" oneway="1" width="2.00"/>
    <type id="highway.primary" priority="12" numLanes="2" speed="27.78" disallow="tram rail_urban rail rail_electric rail_fast ship" oneway="0"/>
    <type id="highway.primary_link" priority="7" numLanes="1" speed="22.22" disallow="tram rail_urban rail rail_electric rail_fast ship" oneway="0"/>
    <type id="highway.raceway" priority="15" numLanes="2" speed="83.33" allow="vip" oneway="0"/>
    <type id="highway.residential" priority="3" numLanes="1" speed="13.89" disallow="tram rail_urban rail rail_electric rail_fast ship" oneway="0"/>
    <type id="highway.secondary" priority="11" numLanes="1" speed="27.78" disallow="tram rail_urban rail rail_electric rail_fast ship" oneway="0"/>
    <type id="highway.secondary_link" priority="6" numLanes="1" speed="22.22" disallow="tram rail_urban rail rail_electric rail_fast ship" oneway="0"/>
    <type id="highway.service" priority="1" numLanes="1" speed="5.56" allow="pedestrian delivery bicycle" oneway="0"/>
    <type id="highway.stairs" priority="1" numLanes="1" speed="1.39" allow="pedestrian" oneway="1" width="2.00"/>
    <type id="highway.step" priority="1" numLanes="1" speed="1.39" allow="pedestrian" oneway="1" width="2.00"/>
    <type id="highway.steps" priority="1" numLanes="1" speed="1.39" allow="pedestrian" oneway="1" width="2.00"/>
    <type id="highway.tertiary" priority="10" numLanes="1" speed="22.22" disallow="tram rail_urban rail rail_electric rail_fast ship" oneway="0"/>
    <type id="highway.tertiary_link" priority="5" numLanes="1" speed="22.22" disallow="tram rail_urban rail rail_electric rail_fast ship" oneway="0"/>
    <type id="highway.track" priority="1" numLanes="1" speed="5.56" allow="pedestrian motorcycle moped bicycle" oneway="0"/>
    <type id="highway.trunk" priority="13" numLanes="2" speed="27.78" disallow="pedestrian bicycle tram rail_urban rail rail_electric rail_fast ship" oneway="0"/>
    <type id="highway.trunk_link" priority="8" numLanes="1" speed="22.22" disallow="pedestrian bicycle tram rail_urban rail rail_electric rail_fast ship" oneway="0"/>
    <type id="highway.unclassified" priority="4" numLanes="1" speed="13.89" disallow="tram rail_urban rail rail_electric rail_fast ship" oneway="0"/>
    <type id="highway.unsurfaced" priority="1" numLanes="1" speed="8.33" disallow="tram rail_urban rail rail_electric rail_fast ship" oneway="0"/>
    <type id="railway.highspeed" priority="21" numLanes="1" speed="69.44" allow="rail_fast" oneway="1"/>
    <type id="railway.light_rail" priority="19" numLanes="1" speed="27.78" allow="rail_urban" oneway="1"/>
    <type id="railway.preserved" priority="16" numLanes="1" speed="27.78" allow="rail" oneway="1"/>
    <type id="railway.rail" priority="20" numLanes="1" speed="44.44" allow="rail" oneway="1"/>
    <type id="railway.subway" priority="18" numLanes="1" speed="27.78" allow="rail_urban" oneway="1"/>
    <type id="railway.tram" priority="17" numLanes="1" speed="13.89" allow="tram" oneway="1"/>

    <edge id=":107_0" function="internal">
        <lane id=":107_0_0" index="0" disallow="tram rail_urban rail rail_electric rail_fast ship" speed="13.89" length="0.30" shape="947.76,196.75 948.05,196.69"/>
    </edge>
    <edge id=":112_0" function="internal">
        <lane id=":112_0_0" index="0" disallow="tram rail_urban rail rail_electric rail_fast ship" speed="13.89" length="0.29" shape="1406.88,301.46 1407.17,301.42"/>
    </edge>
    <edge id=":113_0" function="internal">
        <lane id=":113_0_0" index="0" disallow="tram rail_urban rail rail_electric rail_fast ship" speed="27.78" length="0.30" shape="1489.79,115.20 1489.75,114.90"/>
    </edge>
    <edge id=":116_0" function="internal">
        <lane id=":116_0_0" index="0" disallow="tram rail_urban rail rail_electric rail_fast ship" speed="13.89" length="0.29" shape="444.08,626.20 444.03,625.92"/>
    </edge>
    <edge id=":160_0" function="internal">
        <lane id=":160_0_0" index="0" disallow="tram rail_urban rail rail_electric rail_fast ship" speed="3.91" length="2.53" shape="842.28,1161.50 841.59,1161.49 841.06,1161.27 840.70,1160.82 840.49,1160.16"/>
    </edge>
    <edge id=":165_0" function="internal">
        <lane id=":165_0_0" index="0" disallow="tram rail_urban rail rail_electric rail_fast ship" speed="13.89" length="0.29" shape="877.63,1156.74 877.34,1156.78"/>
    </edge>
    <edge id=":168_0" function="internal">
        <lane id=":168_0_0" index="0" disallow="tram rail_urban rail rail_electric rail_fast ship" speed="13.89" length="0.10" shape="1116.87,1821.98 1116.87,1821.98"/>
        <lane id=":168_0_1" index="1" disallow="tram rail_urban rail rail_electric rail_fast ship" speed="13.89" length="0.10" shape="1120.04,1821.51 1120.04,1821.51"/>
    </edge>
    <edge id=":168_2" function="internal">
        <lane id=":168_2_0" index="0" disallow="tram rail_urban rail rail_electric rail_fast ship" speed="3.65" length="2.34" shape="1120.04,1821.51 1120.65,1820.20 1121.38,1819.69"/>
    </edge>
    <edge id=":168_6" function="internal">
        <lane id=":168_6_0" index="0" disallow="tram rail_urban rail rail_electric rail_fast ship" speed="3.65" length="2.34" shape="1121.38,1819.69 1122.23,1819.97 1123.20,1821.03"/>
    </edge>
    <edge id=":168_3" function="internal">
        <lane id=":168_3_0" index="0" disallow="tram rail_urban rail rail_electric rail_fast ship" speed="13.89" length="0.10" shape="1126.37,1820.56 1126.37,1820.56"/>
        <lane id=":168_3_1" index="1" disallow="tram rail_urban rail rail_electric rail_fast ship" speed="13.89" length="0.10" shape="1123.20,1821.03 1123.20,1821.03"/>
    </edge>
    <edge id=":168_5" function="internal">
        <lane id=":168_5_0" index="0" disallow="tram rail_urban rail rail_electric rail_fast ship" speed="3.65" length="2.34" shape="1123.20,1821.03 1122.59,1822.34 1121.86,1822.85"/>
    </edge>
    <edge id=":168_7" function="internal">
        <lane id=":168_7_0" index="0" disallow="tram rail_urban rail rail_electric rail_fast ship" speed="3.65" length="2.34" shape="1121.86,1822.85 1121.01,1822.57 1120.04,1821.51"/>
    </edge>
    <edge id=":183_0" function="internal">
        <lane id=":183_0_0" index="0" disallow="tram rail_urban rail rail_electric rail_fast ship" speed="13.89" length="8.81" shape="1098.55,1702.49 1098.66,1699.98 1099.51,1698.29 1100.36,1696.60 1100.47,1694.09"/>
    </edge>
    <edge id=":183_1" function="internal">
        <lane id=":183_1_0" index="0" disallow="tram rail_urban rail rail_electric rail_fast ship" speed="3.65" length="1.44" shape="1101.71,1701.99 1102.31,1700.68"/>
    </edge>
    <edge id=":183_4" function="internal">
        <lane id=":183_4_0" index="0" disallow="tram rail_urban rail rail_electric rail_fast ship" speed="3.65" length="3.23" shape="1102.31,1700.68 1103.04,1700.16 1103.89,1700.43 1104.87,1701.49"/>
    </edge>
    <edge id=":183_2" function="internal">
        <lane id=":183_2_0" index="0" disallow="tram rail_urban rail rail_electric rail_fast ship" speed="13.89" length="8.00" shape="1103.63,1693.59 1104.87,1701.49"/>
    </edge>
    <edge id=":183_3" function="internal">
        <lane id=":183_3_0" index="0" disallow="tram rail_urban rail rail_electric rail_fast ship" speed="3.65" length="1.44" shape="1103.63,1693.59 1103.03,1694.90"/>
    </edge>
    <edge id=":183_5" function="internal">
        <lane id=":183_5_0" index="0" disallow="tram rail_urban rail rail_electric rail_fast ship" speed="3.65" length="3.23" shape="1103.03,1694.90 1102.30,1695.42 1101.45,1695.15 1100.47,1694.09"/>
    </edge>
    <edge id=":185_0" function="internal">
        <lane id=":185_0_0" index="0" disallow="tram rail_urban rail rail_electric rail_fast ship" speed="13.89" length="16.96" shape="820.53,312.39 818.03,295.61"/>
        <lane id=":185_0_1" index="1" disallow="tram rail_urban rail rail_electric rail_fast ship" speed="13.89" length="16.96" shape="823.70,311.91 821.20,295.14"/>
    </edge>
    <edge id=":185_2" function="internal">
        <lane id=":185_2_0" index="0" disallow="tram rail_urban rail rail_electric rail_fast ship" speed="13.21" length="2.58" shape="823.70,311.91 824.08,309.36"/>
    </edge>
    <edge id=":185_3" function="internal">
        <lane id=":185_3_0" index="0" disallow="tram rail_urban rail rail_electric rail_fast ship" speed="3.65" length="1.44" shape="823.70,311.91 824.31,310.61"/>
    </edge>
    <edge id=":185_11" function="internal">
        <lane id=":185_11_0" index="0" disallow="tram rail_urban rail rail_electric rail_fast ship" speed="13.21" length="16.45" shape="824.08,309.36 825.85,305.86 829.01,301.41 833.55,296.00"/>
    </edge>
    <edge id=":185_12" function="internal">
        <lane id=":185_12_0" index="0" disallow="tram rail_urban rail rail_electric rail_fast ship" speed="3.65" length="3.23" shape="824.31,310.61 825.04,310.09 825.89,310.37 826.86,311.44"/>
    </edge>
    <edge id=":185_4" function="internal">
        <lane id=":185_4_0" index="0" disallow="tram rail_urban rail rail_electric rail_fast ship" speed="5.52" length="9.51" shape="827.53,294.20 828.31,297.06 829.58,298.32 831.33,297.96 833.55,296.00"/>
    </edge>
    <edge id=":185_5" function="internal">
        <lane id=":185_5_0" index="0" disallow="tram rail_urban rail rail_electric rail_fast ship" speed="13.89" length="16.95" shape="827.53,294.20 830.03,310.96"/>
        <lane id=":185_5_1" index="1" disallow="tram rail_urban rail rail_electric rail_fast ship" speed="13.89" length="16.95" shape="824.36,294.67 826.86,311.44"/>
    </edge>
    <edge id=":185_7" function="internal">
        <lane id=":185_7_0" index="0" disallow="tram rail_urban rail rail_electric rail_fast ship" speed="3.65" length="1.44" shape="824.36,294.67 823.75,295.97"/>
    </edge>
    <edge id=":185_13" function="internal">
        <lane id=":185_13_0" index="0" disallow="tram rail_urban rail rail_electric rail_fast ship" speed="3.65" length="3.23" shape="823.75,295.97 823.02,296.49 822.17,296.21 821.20,295.14"/>
    </edge>
    <edge id=":185_8" function="internal">
        <lane id=":185_8_0" index="0" disallow="tram rail_urban rail rail_electric rail_fast ship" speed="7.92" length="13.99" shape="814.14,307.64 816.47,306.60 817.90,304.25 818.42,300.58 818.03,295.61"/>
    </edge>
    <edge id=":185_9" function="internal">
        <lane id=":185_9_0" index="0" disallow="tram rail_urban rail rail_electric rail_fast ship" speed="16.95" length="22.84" shape="814.14,307.64 818.80,306.05 824.46,302.96 829.81,299.30 833.55,296.00"/>
    </edge>
    <edge id=":185_10" function="internal">
        <lane id=":185_10_0" index="0" disallow="tram rail_urban rail rail_electric rail_fast ship" speed="8.13" length="14.56" shape="814.14,307.64 819.40,307.26 823.27,307.76 825.76,309.16 826.86,311.44"/>
    </edge>
    <edge id=":187_0" function="internal">
        <lane id=":187_0_0" index="0" disallow="tram rail_urban rail rail_electric rail_fast ship" speed="3.93" length="2.21" shape="1167.46,726.56 1167.29,726.00 1166.99,725.58 1166.55,725.31 1165.97,725.20"/>
    </edge>
    <edge id=":187_1" function="internal">
        <lane id=":187_1_0" index="0" disallow="tram rail_urban rail rail_electric rail_fast ship" speed="3.65" length="4.67" shape="1167.46,726.56 1168.07,725.26 1168.81,724.75 1169.66,725.02 1170.62,726.10"/>
    </edge>
    <edge id=":187_2" function="internal">
        <lane id=":187_2_0" index="0" disallow="tram rail_urban rail rail_electric rail_fast ship" speed="6.12" length="6.63" shape="1166.16,722.01 1167.90,722.35 1169.22,723.15 1170.13,724.39 1170.62,726.10"/>
    </edge>
    <edge id=":187_3" function="internal">
        <lane id=":187_3_0" index="0" disallow="tram rail_urban rail rail_electric rail_fast ship" speed="3.65" length="4.67" shape="1166.16,722.01 1167.31,722.88 1167.66,723.70 1167.22,724.47 1165.97,725.20"/>
    </edge>
    <edge id=":188_0" function="internal">
        <lane id=":188_0_0" index="0" disallow="tram rail_urban rail rail_electric rail_fast ship" speed="27.78" length="11.22" shape="1143.04,720.82 1132.07,718.44"/>
    </edge>
    <edge id=":188_1" function="internal">
        <lane id=":188_1_0" index="0" disallow="tram rail_urban rail rail_electric rail_fast ship" speed="8.19" length="1.98" shape="1143.04,720.82 1141.43,719.89 1141.36,719.79"/>
    </edge>
    <edge id=":188_2" function="internal">
        <lane id=":188_2_0" index="0" disallow="tram rail_urban rail rail_electric rail_fast ship" speed="3.65" length="1.44" shape="1143.04,720.82 1142.04,719.78"/>
    </edge>
    <edge id=":188_6" function="internal">
        <lane id=":188_6_0" index="0" disallow="tram rail_urban rail rail_electric rail_fast ship" speed="8.19" length="9.58" shape="1141.36,719.79 1140.17,717.90 1139.27,714.85 1138.72,710.72"/>
    </edge>
    <edge id=":188_7" function="internal">
        <lane id=":188_7_0" index="0" disallow="tram rail_urban rail rail_electric rail_fast ship" speed="3.65" length="3.23" shape="1142.04,719.78 1141.82,718.91 1142.38,718.22 1143.72,717.69"/>
    </edge>
    <edge id=":188_3" function="internal">
        <lane id=":188_3_0" index="0" disallow="tram rail_urban rail rail_electric rail_fast ship" speed="6.03" length="9.31" shape="1132.75,715.31 1135.54,715.55 1137.46,714.86 1138.52,713.25 1138.72,710.72"/>
    </edge>
    <edge id=":188_4" function="internal">
        <lane id=":188_4_0" index="0" disallow="tram rail_urban rail rail_electric rail_fast ship" speed="27.78" length="11.23" shape="1132.75,715.31 1143.72,717.69"/>
    </edge>
    <edge id=":188_5" function="internal">
        <lane id=":188_5_0" index="0" disallow="tram rail_urban rail rail_electric rail_fast ship" speed="3.65" length="1.44" shape="1132.75,715.31 1133.75,716.35"/>
    </edge>
    <edge id=":188_8" function="internal">
        <lane id=":188_8_0" index="0" disallow="tram rail_urban rail rail_electric rail_fast ship" speed="3.65" length="3.23" shape="1133.75,716.35 1133.98,717.21 1133.41,717.91 1132.07,718.44"/>
    </edge>
    <edge id=":189_0" function="internal">
        <lane id=":189_0_0" index="0" disallow="tram rail_urban rail rail_electric rail_fast ship" speed="13.89" length="23.18" shape="1099.09,1205.31 1104.05,1209.33 1108.22,1212.06 1112.79,1213.96 1118.94,1215.51"/>
        <lane id=":189_0_1" index="1" disallow="tram rail_urban rail rail_electric rail_fast ship" speed="13.89" length="23.18" shape="1097.45,1208.11 1102.56,1212.18 1107.07,1215.02 1111.98,1217.04 1118.29,1218.65"/>
    </edge>
    <edge id=":189_2" function="internal">
        <lane id=":189_2_0" index="0" disallow="tram rail_urban rail rail_electric rail_fast ship" speed="3.67" length="4.74" shape="1097.45,1208.11 1098.09,1209.42 1098.02,1210.33 1097.26,1210.82 1095.80,1210.90"/>
    </edge>
    <edge id=":189_3" function="internal">
        <lane id=":189_3_0" index="0" disallow="tram rail_urban rail rail_electric rail_fast ship" speed="5.55" length="11.43" shape="1092.76,1218.55 1096.70,1218.37 1098.24,1217.49 1097.40,1215.93 1094.17,1213.67"/>
    </edge>
    <edge id=":189_4" function="internal">
        <lane id=":189_4_0" index="0" disallow="tram rail_urban rail rail_electric rail_fast ship" speed="18.05" length="25.60" shape="1092.76,1218.55 1097.48,1218.35 1103.73,1217.89 1110.87,1217.79 1118.29,1218.65"/>
    </edge>
    <edge id=":190_0" function="internal">
        <lane id=":190_0_0" index="0" disallow="tram rail_urban rail rail_electric rail_fast ship" speed="15.28" length="0.30" shape="605.96,792.68 606.26,792.62"/>
        <lane id=":190_0_1" index="1" disallow="tram rail_urban rail rail_electric rail_fast ship" speed="15.28" length="0.30" shape="606.57,795.82 606.86,795.76"/>
    </edge>
    <edge id=":191_0" function="internal">
        <lane id=":191_0_0" index="0" disallow="tram rail_urban rail rail_electric rail_fast ship" speed="6.50" length="9.03" shape="986.89,733.59 989.25,732.86 990.81,731.54 991.57,729.65 991.52,727.18"/>
    </edge>
    <edge id=":191_1" function="internal">
        <lane id=":191_1_0" index="0" disallow="tram rail_urban rail rail_electric rail_fast ship" speed="27.78" length="11.18" shape="986.89,733.59 997.93,731.84"/>
    </edge>
    <edge id=":192_0" function="internal">
        <lane id=":192_0_0" index="0" disallow="tram rail_urban rail rail_electric rail_fast ship" speed="7.32" length="2.52" shape="1072.81,723.53 1070.30,723.38"/>
    </edge>
    <edge id=":192_1" function="internal">
        <lane id=":192_1_0" index="0" disallow="tram rail_urban rail rail_electric rail_fast ship" speed="3.65" length="1.44" shape="1072.81,723.53 1071.50,722.93"/>
    </edge>
    <edge id=":192_4" function="internal">
        <lane id=":192_4_0" index="0" disallow="tram rail_urban rail rail_electric rail_fast ship" speed="7.32" length="9.22" shape="1070.30,723.38 1068.31,722.02 1066.84,719.47 1065.90,715.72"/>
    </edge>
    <edge id=":192_5" function="internal">
        <lane id=":192_5_0" index="0" disallow="tram rail_urban rail rail_electric rail_fast ship" speed="3.65" length="3.23" shape="1071.50,722.93 1070.98,722.20 1071.24,721.35 1072.30,720.37"/>
    </edge>
    <edge id=":192_2" function="internal">
        <lane id=":192_2_0" index="0" disallow="tram rail_urban rail rail_electric rail_fast ship" speed="6.50" length="9.03" shape="1061.22,722.10 1063.59,721.39 1065.16,720.08 1065.93,718.19 1065.90,715.72"/>
    </edge>
    <edge id=":192_3" function="internal">
        <lane id=":192_3_0" index="0" disallow="tram rail_urban rail rail_electric rail_fast ship" speed="27.78" length="11.21" shape="1061.22,722.10 1072.30,720.37"/>
    </edge>
    <edge id=":194_0" function="internal">
        <lane id=":194_0_0" index="0" disallow="tram rail_urban rail rail_electric rail_fast ship" speed="13.89" length="11.24" shape="876.02,664.71 874.26,653.60"/>
        <lane id=":194_0_1" index="1" disallow="tram rail_urban rail rail_electric rail_fast ship" speed="13.89" length="11.24" shape="879.18,664.20 877.42,653.10"/>
    </edge>
    <edge id=":194_2" function="internal">
        <lane id=":194_2_0" index="0" disallow="tram rail_urban rail rail_electric rail_fast ship" speed="3.65" length="1.44" shape="879.18,664.20 879.78,662.89"/>
    </edge>
    <edge id=":194_8" function="internal">
        <lane id=":194_8_0" index="0" disallow="tram rail_urban rail rail_electric rail_fast ship" speed="3.65" length="3.23" shape="879.78,662.89 880.51,662.37 881.36,662.64 882.34,663.69"/>
    </edge>
    <edge id=":194_3" function="internal">
        <lane id=":194_3_0" index="0" disallow="tram rail_urban rail rail_electric rail_fast ship" speed="6.48" length="9.03" shape="890.16,656.81 887.79,657.52 886.22,658.82 885.46,660.71 885.50,663.19"/>
    </edge>
    <edge id=":194_4" function="internal">
        <lane id=":194_4_0" index="0" disallow="tram rail_urban rail rail_electric rail_fast ship" speed="8.12" length="14.57" shape="890.16,656.81 884.91,657.24 881.03,656.77 878.54,655.39 877.42,653.10"/>
    </edge>
    <edge id=":194_5" function="internal">
        <lane id=":194_5_0" index="0" disallow="tram rail_urban rail rail_electric rail_fast ship" speed="13.89" length="11.21" shape="883.74,652.12 885.50,663.19"/>
        <lane id=":194_5_1" index="1" disallow="tram rail_urban rail rail_electric rail_fast ship" speed="13.89" length="11.21" shape="880.58,652.61 882.34,663.69"/>
    </edge>
    <edge id=":194_7" function="internal">
        <lane id=":194_7_0" index="0" disallow="tram rail_urban rail rail_electric rail_fast ship" speed="3.65" length="1.44" shape="880.58,652.61 879.98,653.92"/>
    </edge>
    <edge id=":194_9" function="internal">
        <lane id=":194_9_0" index="0" disallow="tram rail_urban rail rail_electric rail_fast ship" speed="3.65" length="3.23" shape="879.98,653.92 879.25,654.44 878.40,654.17 877.42,653.10"/>
    </edge>
    <edge id=":195_0" function="internal">
        <lane id=":195_0_0" index="0" disallow="tram rail_urban rail rail_electric rail_fast ship" speed="6.52" length="8.98" shape="978.86,649.16 978.13,646.80 976.82,645.24 974.95,644.46 972.50,644.48"/>
    </edge>
    <edge id=":195_1" function="internal">
        <lane id=":195_1_0" index="0" disallow="tram rail_urban rail rail_electric rail_fast ship" speed="13.89" length="11.10" shape="983.46,642.74 972.50,644.48"/>
    </edge>
    <edge id=":196_0" function="internal">
        <lane id=":196_0_0" index="0" disallow="tram rail_urban rail rail_electric rail_fast ship" speed="13.89" length="0.30" shape="1029.07,634.86 1028.77,634.92"/>
    </edge>
    <edge id=":197_0" function="internal">
        <lane id=":197_0_0" index="0" disallow="tram rail_urban rail rail_electric rail_fast ship" speed="6.46" length="9.03" shape="1053.47,636.26 1052.75,633.89 1051.44,632.34 1049.54,631.60 1047.06,631.68"/>
    </edge>
    <edge id=":197_1" function="internal">
        <lane id=":197_1_0" index="0" disallow="tram rail_urban rail rail_electric rail_fast ship" speed="13.89" length="11.23" shape="1058.13,629.79 1047.06,631.68"/>
    </edge>
    <edge id=":198_0" function="internal">
        <lane id=":198_0_0" index="0" disallow="tram rail_urban rail rail_electric rail_fast ship" speed="13.89" length="0.28" shape="1112.29,621.16 1112.01,621.20"/>
    </edge>
    <edge id=":199_0" function="internal">
        <lane id=":199_0_0" index="0" disallow="tram rail_urban rail rail_electric rail_fast ship" speed="13.89" length="0.62" shape="1118.43,620.46 1118.26,620.41 1118.13,620.38 1118.01,620.37 1117.82,620.39"/>
    </edge>
    <edge id=":211_0" function="internal">
        <lane id=":211_0_0" index="0" disallow="tram rail_urban rail rail_electric rail_fast ship" speed="22.22" length="0.30" shape="1370.78,1363.82 1370.68,1364.10"/>
    </edge>
    <edge id=":216_0" function="internal">
        <lane id=":216_0_0" index="0" disallow="tram rail_urban rail rail_electric rail_fast ship" speed="13.89" length="0.23" shape="1083.37,1301.65 1083.34,1301.42"/>
    </edge>
    <edge id=":216_1" function="internal">
        <lane id=":216_1_0" index="0" disallow="tram rail_urban rail rail_electric rail_fast ship" speed="3.65" length="2.34" shape="1083.37,1301.65 1084.01,1300.35 1084.75,1299.86"/>
    </edge>
    <edge id=":216_4" function="internal">
        <lane id=":216_4_0" index="0" disallow="tram rail_urban rail rail_electric rail_fast ship" speed="3.65" length="2.34" shape="1084.75,1299.86 1085.60,1300.15 1086.54,1301.24"/>
    </edge>
    <edge id=":216_2" function="internal">
        <lane id=":216_2_0" index="0" disallow="tram rail_urban rail rail_electric rail_fast ship" speed="13.89" length="0.31" shape="1086.50,1300.93 1086.54,1301.24"/>
    </edge>
    <edge id=":216_3" function="internal">
        <lane id=":216_3_0" index="0" disallow="tram rail_urban rail rail_electric rail_fast ship" speed="3.65" length="2.34" shape="1086.50,1300.93 1085.89,1302.24 1085.16,1302.76"/>
    </edge>
    <edge id=":216_5" function="internal">
        <lane id=":216_5_0" index="0" disallow="tram rail_urban rail rail_electric rail_fast ship" speed="3.65" length="2.34" shape="1085.16,1302.76 1084.31,1302.49 1083.34,1301.42"/>
    </edge>
    <edge id=":220_0" function="internal">
        <lane id=":220_0_0" index="0" disallow="tram rail_urban rail rail_electric rail_fast ship" speed="6.75" length="8.35" shape="1193.31,1235.66 1195.36,1236.13 1197.23,1235.84 1198.92,1234.78 1200.43,1232.96"/>
    </edge>
    <edge id=":220_1" function="internal">
        <lane id=":220_1_0" index="0" disallow="tram rail_urban rail rail_electric rail_fast ship" speed="13.89" length="9.85" shape="1193.31,1235.66 1202.46,1239.30"/>
    </edge>
    <edge id=":221_0" function="internal">
        <lane id=":221_0_0" index="0" disallow="tram rail_urban rail rail_electric rail_fast ship" speed="4.34" length="1.11" shape="1239.56,1171.35 1239.72,1171.06 1239.79,1170.84 1239.80,1170.61 1239.75,1170.29"/>
    </edge>
    <edge id=":226_0" function="internal">
        <lane id=":226_0_0" index="0" disallow="tram rail_urban rail rail_electric rail_fast ship" speed="16.67" length="0.30" shape="957.58,852.74 957.73,853.00"/>
        <lane id=":226_0_1" index="1" disallow="tram rail_urban rail rail_electric rail_fast ship" speed="16.67" length="0.30" shape="954.81,854.34 954.96,854.60"/>
    </edge>
    <edge id=":227_0" function="internal">
        <lane id=":227_0_0" index="0" disallow="tram rail_urban rail rail_electric rail_fast ship" speed="6.53" length="9.10" shape="1183.92,825.29 1183.18,822.92 1181.85,821.36 1179.94,820.61 1177.43,820.66"/>
    </edge>
    <edge id=":227_1" function="internal">
        <lane id=":227_1_0" index="0" disallow="tram rail_urban rail rail_electric rail_fast ship" speed="13.89" length="14.44" shape="1183.92,825.29 1181.44,811.06"/>
    </edge>
    <edge id=":227_2" function="internal">
        <lane id=":227_2_0" index="0" disallow="tram rail_urban rail rail_electric rail_fast ship" speed="7.96" length="4.19" shape="1184.58,810.47 1184.76,814.39 1184.67,814.63"/>
    </edge>
    <edge id=":227_3" function="internal">
        <lane id=":227_3_0" index="0" disallow="tram rail_urban rail rail_electric rail_fast ship" speed="3.65" length="1.44" shape="1184.58,810.47 1184.02,811.79"/>
    </edge>
    <edge id=":227_6" function="internal">
        <lane id=":227_6_0" index="0" disallow="tram rail_urban rail rail_electric rail_fast ship" speed="7.96" length="10.10" shape="1184.67,814.63 1183.62,817.40 1181.18,819.49 1177.43,820.66"/>
    </edge>
    <edge id=":227_7" function="internal">
        <lane id=":227_7_0" index="0" disallow="tram rail_urban rail rail_electric rail_fast ship" speed="3.65" length="3.23" shape="1184.02,811.79 1183.31,812.33 1182.45,812.09 1181.44,811.06"/>
    </edge>
    <edge id=":227_4" function="internal">
        <lane id=":227_4_0" index="0" disallow="tram rail_urban rail rail_electric rail_fast ship" speed="6.45" length="9.03" shape="1176.91,817.50 1179.29,816.76 1180.83,815.44 1181.55,813.54 1181.44,811.06"/>
    </edge>
    <edge id=":227_5" function="internal">
        <lane id=":227_5_0" index="0" disallow="tram rail_urban rail rail_electric rail_fast ship" speed="3.65" length="4.67" shape="1176.91,817.50 1178.23,818.10 1178.75,818.83 1178.48,819.68 1177.43,820.66"/>
    </edge>
    <edge id=":231_0" function="internal">
        <lane id=":231_0_0" index="0" disallow="tram rail_urban rail rail_electric rail_fast ship" speed="13.89" length="0.25" shape="801.60,196.17 801.57,195.95"/>