<?xml version="1.0" encoding="UTF-8"?>

<!-- generated on 2022-10-09 19:00:22 by Eclipse SUMO netconvert Version 1.12.0
<configuration xmlns:xsi="http://www.w3.org/2001/XMLSchema-instance" xsi:noNamespaceSchemaLocation="http://sumo.dlr.de/xsd/netconvertConfiguration.xsd">

    <input>
        <sumo-net-file value="/home/svadlmat/UTC/utc/data/maps/sumo/Sydney.net.xml"/>
    </input>

    <output>
        <output-file value="/home/svadlmat/UTC/utc/data/scenarios/19_00_18_sydney/maps/networks/19_00_18_sydney_similarity_maximal_similarity_sg.net.xml"/>
    </output>

    <processing>
        <geometry.min-radius.fix.railways value="false"/>
        <geometry.max-grade.fix value="false"/>
        <offset.disable-normalization value="true"/>
        <lefthand value="false"/>
    </processing>

    <edge_removal>
        <keep-edges.explicit value="447,428,427,535,832,448,827,20,1038,333,210,563,759,989,990,959,969,426,628,331,233,341,51,590,829,884,1006,768,415,425,1010,404,332,513,988,1007,12,211,379,760,9,1013,750,338,292,287,831,890,430,346,374,213,405,965,897,507,769,488,502,527,93,828,526,212,1005,10,342,885,627,641,741,515,508,410,587,375,538,958,232,449,19,758,984,886,968,774,11,964,288,525,985,399,742,209,957,400,751,411,92,967,1002,1004,403,1003,739,609"/>
    </edge_removal>

    <junctions>
        <no-turnarounds value="true"/>
        <junctions.corner-detail value="5"/>
        <junctions.limit-turn-speed value="5.5"/>
        <rectangular-lane-cut value="false"/>
    </junctions>

    <pedestrian>
        <walkingareas value="false"/>
    </pedestrian>

    <report>
        <aggregate-warnings value="5"/>
    </report>

</configuration>
-->

<net version="1.9" junctionCornerDetail="5" limitTurnSpeed="5.50" xmlns:xsi="http://www.w3.org/2001/XMLSchema-instance" xsi:noNamespaceSchemaLocation="http://sumo.dlr.de/xsd/net_file.xsd">

    <location netOffset="-336586.08,3754670.31" convBoundary="160.64,12.34,1518.75,2196.77" origBoundary="151.232525,-33.920080,151.266296,-33.899237" projParameter="+proj=utm +zone=56 +ellps=WGS84 +datum=WGS84 +units=m +no_defs"/>

    <type id="highway.bridleway" priority="1" numLanes="1" speed="2.78" allow="pedestrian" oneway="1" width="2.00"/>
    <type id="highway.bus_guideway" priority="1" numLanes="1" speed="27.78" allow="bus" oneway="1"/>
    <type id="highway.cycleway" priority="1" numLanes="1" speed="8.33" allow="bicycle" oneway="0" width="1.00"/>
    <type id="highway.footway" priority="1" numLanes="1" speed="2.78" allow="pedestrian" oneway="1" width="2.00"/>
    <type id="highway.ford" priority="1" numLanes="1" speed="2.78" allow="army" oneway="0"/>
    <type id="highway.living_street" priority="2" numLanes="1" speed="2.78" disallow="tram rail_urban rail rail_electric rail_fast ship" oneway="0"/>
    <type id="highway.motorway" priority="14" numLanes="2" speed="39.44" allow="private emergency authority army vip passenger hov taxi bus coach delivery truck trailer motorcycle evehicle custom1 custom2" oneway="1"/>
    <type id="highway.motorway_link" priority="9" numLanes="1" speed="22.22" allow="private emergency authority army vip passenger hov taxi bus coach delivery truck trailer motorcycle evehicle custom1 custom2" oneway="1"/>
    <type id="highway.path" priority="1" numLanes="1" speed="2.78" allow="pedestrian bicycle" oneway="0" width="2.00"/>
    <type id="highway.pedestrian" priority="1" numLanes="1" speed="2.78" allow="pedestrian" oneway="1" width="2.00"/>
    <type id="highway.primary" priority="12" numLanes="2" speed="27.78" disallow="tram rail_urban rail rail_electric rail_fast ship" oneway="0"/>
    <type id="highway.primary_link" priority="7" numLanes="1" speed="22.22" disallow="tram rail_urban rail rail_electric rail_fast ship" oneway="0"/>
    <type id="highway.raceway" priority="15" numLanes="2" speed="83.33" allow="vip" oneway="0"/>
    <type id="highway.residential" priority="3" numLanes="1" speed="13.89" disallow="tram rail_urban rail rail_electric rail_fast ship" oneway="0"/>
    <type id="highway.secondary" priority="11" numLanes="1" speed="27.78" disallow="tram rail_urban rail rail_electric rail_fast ship" oneway="0"/>
    <type id="highway.secondary_link" priority="6" numLanes="1" speed="22.22" disallow="tram rail_urban rail rail_electric rail_fast ship" oneway="0"/>
    <type id="highway.service" priority="1" numLanes="1" speed="5.56" allow="pedestrian delivery bicycle" oneway="0"/>
    <type id="highway.stairs" priority="1" numLanes="1" speed="1.39" allow="pedestrian" oneway="1" width="2.00"/>
    <type id="highway.step" priority="1" numLanes="1" speed="1.39" allow="pedestrian" oneway="1" width="2.00"/>
    <type id="highway.steps" priority="1" numLanes="1" speed="1.39" allow="pedestrian" oneway="1" width="2.00"/>
    <type id="highway.tertiary" priority="10" numLanes="1" speed="22.22" disallow="tram rail_urban rail rail_electric rail_fast ship" oneway="0"/>
    <type id="highway.tertiary_link" priority="5" numLanes="1" speed="22.22" disallow="tram rail_urban rail rail_electric rail_fast ship" oneway="0"/>
    <type id="highway.track" priority="1" numLanes="1" speed="5.56" allow="pedestrian motorcycle moped bicycle" oneway="0"/>
    <type id="highway.trunk" priority="13" numLanes="2" speed="27.78" disallow="pedestrian bicycle tram rail_urban rail rail_electric rail_fast ship" oneway="0"/>
    <type id="highway.trunk_link" priority="8" numLanes="1" speed="22.22" disallow="pedestrian bicycle tram rail_urban rail rail_electric rail_fast ship" oneway="0"/>
    <type id="highway.unclassified" priority="4" numLanes="1" speed="13.89" disallow="tram rail_urban rail rail_electric rail_fast ship" oneway="0"/>
    <type id="highway.unsurfaced" priority="1" numLanes="1" speed="8.33" disallow="tram rail_urban rail rail_electric rail_fast ship" oneway="0"/>
    <type id="railway.highspeed" priority="21" numLanes="1" speed="69.44" allow="rail_fast" oneway="1"/>
    <type id="railway.light_rail" priority="19" numLanes="1" speed="27.78" allow="rail_urban" oneway="1"/>
    <type id="railway.preserved" priority="16" numLanes="1" speed="27.78" allow="rail" oneway="1"/>
    <type id="railway.rail" priority="20" numLanes="1" speed="44.44" allow="rail" oneway="1"/>
    <type id="railway.subway" priority="18" numLanes="1" speed="27.78" allow="rail_urban" oneway="1"/>
    <type id="railway.tram" priority="17" numLanes="1" speed="13.89" allow="tram" oneway="1"/>

    <edge id=":107_0" function="internal">
        <lane id=":107_0_0" index="0" disallow="tram rail_urban rail rail_electric rail_fast ship" speed="13.89" length="0.30" shape="947.76,196.75 948.05,196.69"/>
    </edge>
    <edge id=":112_0" function="internal">
        <lane id=":112_0_0" index="0" disallow="tram rail_urban rail rail_electric rail_fast ship" speed="13.89" length="0.29" shape="1406.88,301.46 1407.17,301.42"/>
    </edge>
    <edge id=":113_0" function="internal">
        <lane id=":113_0_0" index="0" disallow="tram rail_urban rail rail_electric rail_fast ship" speed="27.78" length="0.30" shape="1489.79,115.20 1489.75,114.90"/>
    </edge>
    <edge id=":116_0" function="internal">
        <lane id=":116_0_0" index="0" disallow="tram rail_urban rail rail_electric rail_fast ship" speed="13.89" length="0.29" shape="444.08,626.20 444.03,625.92"/>
    </edge>
    <edge id=":160_0" function="internal">
        <lane id=":160_0_0" index="0" disallow="tram rail_urban rail rail_electric rail_fast ship" speed="3.91" length="2.53" shape="842.28,1161.50 841.59,1161.49 841.06,1161.27 840.70,1160.82 840.49,1160.16"/>
    </edge>
    <edge id=":165_0" function="internal">
        <lane id=":165_0_0" index="0" disallow="tram rail_urban rail rail_electric rail_fast ship" speed="13.89" length="0.29" shape="877.63,1156.74 877.34,1156.78"/>
    </edge>
    <edge id=":168_0" function="internal">
        <lane id=":168_0_0" index="0" disallow="tram rail_urban rail rail_electric rail_fast ship" speed="13.89" length="11.20" shape="1117.45,1825.82 1115.79,1814.74"/>
        <lane id=":168_0_1" index="1" disallow="tram rail_urban rail rail_electric rail_fast ship" speed="13.89" length="11.20" shape="1120.61,1825.35 1118.96,1814.27"/>
    </edge>
    <edge id=":168_2" function="internal">
        <lane id=":168_2_0" index="0" disallow="tram rail_urban rail rail_electric rail_fast ship" speed="3.65" length="1.44" shape="1120.61,1825.35 1121.22,1824.05"/>
    </edge>
    <edge id=":168_8" function="internal">
        <lane id=":168_8_0" index="0" disallow="tram rail_urban rail rail_electric rail_fast ship" speed="3.65" length="3.23" shape="1121.22,1824.05 1121.96,1823.53 1122.81,1823.81 1123.78,1824.88"/>
    </edge>
    <edge id=":168_3" function="internal">
        <lane id=":168_3_0" index="0" disallow="tram rail_urban rail rail_electric rail_fast ship" speed="13.89" length="11.20" shape="1125.29,1813.33 1126.94,1824.41"/>
        <lane id=":168_3_1" index="1" disallow="tram rail_urban rail rail_electric rail_fast ship" speed="13.89" length="11.20" shape="1122.12,1813.80 1123.78,1824.88"/>
    </edge>
    <edge id=":168_5" function="internal">
        <lane id=":168_5_0" index="0" disallow="tram rail_urban rail rail_electric rail_fast ship" speed="3.65" length="1.44" shape="1122.12,1813.80 1121.51,1815.11"/>
    </edge>
    <edge id=":168_9" function="internal">
        <lane id=":168_9_0" index="0" disallow="tram rail_urban rail rail_electric rail_fast ship" speed="3.65" length="3.23" shape="1121.51,1815.11 1120.78,1815.62 1119.93,1815.34 1118.96,1814.27"/>
    </edge>
    <edge id=":168_6" function="internal">
        <lane id=":168_6_0" index="0" disallow="tram rail_urban rail rail_electric rail_fast ship" speed="6.47" length="9.03" shape="1111.04,1821.04 1113.43,1820.37 1115.02,1819.10 1115.81,1817.23 1115.79,1814.74"/>
    </edge>
    <edge id=":168_7" function="internal">
        <lane id=":168_7_0" index="0" disallow="tram rail_urban rail rail_electric rail_fast ship" speed="8.15" length="14.56" shape="1111.04,1821.04 1116.31,1820.70 1120.19,1821.22 1122.68,1822.61 1123.78,1824.88"/>
    </edge>
    <edge id=":174_0" function="internal">
        <lane id=":174_0_0" index="0" disallow="tram rail_urban rail rail_electric rail_fast ship" speed="13.89" length="0.11" shape="970.10,1800.80 970.17,1800.88"/>
    </edge>
    <edge id=":183_0" function="internal">
        <lane id=":183_0_0" index="0" disallow="tram rail_urban rail rail_electric rail_fast ship" speed="13.89" length="8.81" shape="1098.55,1702.49 1098.66,1699.98 1099.51,1698.29 1100.36,1696.60 1100.47,1694.09"/>
    </edge>
    <edge id=":183_1" function="internal">
        <lane id=":183_1_0" index="0" disallow="tram rail_urban rail rail_electric rail_fast ship" speed="3.65" length="1.44" shape="1101.71,1701.99 1102.31,1700.68"/>
    </edge>
    <edge id=":183_4" function="internal">
        <lane id=":183_4_0" index="0" disallow="tram rail_urban rail rail_electric rail_fast ship" speed="3.65" length="3.23" shape="1102.31,1700.68 1103.04,1700.16 1103.89,1700.43 1104.87,1701.49"/>
    </edge>
    <edge id=":183_2" function="internal">
        <lane id=":183_2_0" index="0" disallow="tram rail_urban rail rail_electric rail_fast ship" speed="13.89" length="8.00" shape="1103.63,1693.59 1104.87,1701.49"/>
    </edge>
    <edge id=":183_3" function="internal">
        <lane id=":183_3_0" index="0" disallow="tram rail_urban rail rail_electric rail_fast ship" speed="3.65" length="1.44" shape="1103.63,1693.59 1103.03,1694.90"/>
    </edge>
    <edge id=":183_5" function="internal">
        <lane id=":183_5_0" index="0" disallow="tram rail_urban rail rail_electric rail_fast ship" speed="3.65" length="3.23" shape="1103.03,1694.90 1102.30,1695.42 1101.45,1695.15 1100.47,1694.09"/>
    </edge>
    <edge id=":185_0" function="internal">
        <lane id=":185_0_0" index="0" disallow="tram rail_urban rail rail_electric rail_fast ship" speed="13.89" length="16.96" shape="820.53,312.39 818.03,295.61"/>
        <lane id=":185_0_1" index="1" disallow="tram rail_urban rail rail_electric rail_fast ship" speed="13.89" length="16.96" shape="823.70,311.91 821.20,295.14"/>
    </edge>
    <edge id=":185_2" function="internal">
        <lane id=":185_2_0" index="0" disallow="tram rail_urban rail rail_electric rail_fast ship" speed="13.21" length="2.58" shape="823.70,311.91 824.08,309.36"/>
    </edge>
    <edge id=":185_3" function="internal">
        <lane id=":185_3_0" index="0" disallow="tram rail_urban rail rail_electric rail_fast ship" speed="3.65" length="1.44" shape="823.70,311.91 824.31,310.61"/>
    </edge>
    <edge id=":185_11" function="internal">
        <lane id=":185_11_0" index="0" disallow="tram rail_urban rail rail_electric rail_fast ship" speed="13.21" length="16.45" shape="824.08,309.36 825.85,305.86 829.01,301.41 833.55,296.00"/>
    </edge>
    <edge id=":185_12" function="internal">
        <lane id=":185_12_0" index="0" disallow="tram rail_urban rail rail_electric rail_fast ship" speed="3.65" length="3.23" shape="824.31,310.61 825.04,310.09 825.89,310.37 826.86,311.44"/>
    </edge>
    <edge id=":185_4" function="internal">
        <lane id=":185_4_0" index="0" disallow="tram rail_urban rail rail_electric rail_fast ship" speed="5.52" length="9.51" shape="827.53,294.20 828.31,297.06 829.58,298.32 831.33,297.96 833.55,296.00"/>
    </edge>
    <edge id=":185_5" function="internal">
        <lane id=":185_5_0" index="0" disallow="tram rail_urban rail rail_electric rail_fast ship" speed="13.89" length="16.95" shape="827.53,294.20 830.03,310.96"/>
        <lane id=":185_5_1" index="1" disallow="tram rail_urban rail rail_electric rail_fast ship" speed="13.89" length="16.95" shape="824.36,294.67 826.86,311.44"/>
    </edge>
    <edge id=":185_7" function="internal">
        <lane id=":185_7_0" index="0" disallow="tram rail_urban rail rail_electric rail_fast ship" speed="3.65" length="1.44" shape="824.36,294.67 823.75,295.97"/>
    </edge>
    <edge id=":185_13" function="internal">
        <lane id=":185_13_0" index="0" disallow="tram rail_urban rail rail_electric rail_fast ship" speed="3.65" length="3.23" shape="823.75,295.97 823.02,296.49 822.17,296.21 821.20,295.14"/>
    </edge>
    <edge id=":185_8" function="internal">
        <lane id=":185_8_0" index="0" disallow="tram rail_urban rail rail_electric rail_fast ship" speed="7.92" length="13.99" shape="814.14,307.64 816.47,306.60 817.90,304.25 818.42,300.58 818.03,295.61"/>
    </edge>
    <edge id=":185_9" function="internal">
        <lane id=":185_9_0" index="0" disallow="tram rail_urban rail rail_electric rail_fast ship" speed="16.95" length="22.84" shape="814.14,307.64 818.80,306.05 824.46,302.96 829.81,299.30 833.55,296.00"/>
    </edge>
    <edge id=":185_10" function="internal">
        <lane id=":185_10_0" index="0" disallow="tram rail_urban rail rail_electric rail_fast ship" speed="8.13" length="14.56" shape="814.14,307.64 819.40,307.26 823.27,307.76 825.76,309.16 826.86,311.44"/>
    </edge>
    <edge id=":187_0" function="internal">
        <lane id=":187_0_0" index="0" disallow="tram rail_urban rail rail_electric rail_fast ship" speed="3.93" length="2.21" shape="1167.46,726.56 1167.29,726.00 1166.99,725.58 1166.55,725.31 1165.97,725.20"/>
    </edge>
    <edge id=":188_0" function="internal">
        <lane id=":188_0_0" index="0" disallow="tram rail_urban rail rail_electric rail_fast ship" speed="27.78" length="0.30" shape="1139.73,720.10 1139.43,720.03"/>
    </edge>
    <edge id=":189_0" function="internal">
        <lane id=":189_0_0" index="0" disallow="tram rail_urban rail rail_electric rail_fast ship" speed="5.91" length="12.27" shape="1092.76,1218.55 1095.42,1218.15 1095.96,1216.72 1094.36,1214.25 1090.64,1210.75"/>
    </edge>
    <edge id=":189_1" function="internal">
        <lane id=":189_1_0" index="0" disallow="tram rail_urban rail rail_electric rail_fast ship" speed="18.05" length="9.59" shape="1092.76,1218.55 1095.41,1217.94 1097.08,1216.53 1098.74,1215.27 1101.34,1215.11"/>
    </edge>
    <edge id=":190_0" function="internal">
        <lane id=":190_0_0" index="0" disallow="tram rail_urban rail rail_electric rail_fast ship" speed="15.28" length="0.30" shape="605.96,792.68 606.26,792.62"/>
        <lane id=":190_0_1" index="1" disallow="tram rail_urban rail rail_electric rail_fast ship" speed="15.28" length="0.30" shape="606.57,795.82 606.86,795.76"/>
    </edge>
    <edge id=":192_0" function="internal">
        <lane id=":192_0_0" index="0" disallow="tram rail_urban rail rail_electric rail_fast ship" speed="3.90" length="2.59" shape="1068.85,724.17 1068.14,724.18 1067.59,723.97 1067.22,723.52 1067.01,722.84"/>
    </edge>
    <edge id=":194_0" function="internal">
        <lane id=":194_0_0" index="0" disallow="tram rail_urban rail rail_electric rail_fast ship" speed="13.89" length="11.24" shape="876.02,664.71 874.26,653.60"/>
        <lane id=":194_0_1" index="1" disallow="tram rail_urban rail rail_electric rail_fast ship" speed="13.89" length="11.24" shape="879.18,664.20 877.42,653.10"/>
    </edge>
    <edge id=":194_2" function="internal">
        <lane id=":194_2_0" index="0" disallow="tram rail_urban rail rail_electric rail_fast ship" speed="3.65" length="1.44" shape="879.18,664.20 879.78,662.89"/>
    </edge>
    <edge id=":194_8" function="internal">
        <lane id=":194_8_0" index="0" disallow="tram rail_urban rail rail_electric rail_fast ship" speed="3.65" length="3.23" shape="879.78,662.89 880.51,662.37 881.36,662.64 882.34,663.69"/>
    </edge>
    <edge id=":194_3" function="internal">
        <lane id=":194_3_0" index="0" disallow="tram rail_urban rail rail_electric rail_fast ship" speed="6.48" length="9.03" shape="890.16,656.81 887.79,657.52 886.22,658.82 885.46,660.71 885.50,663.19"/>
    </edge>
    <edge id=":194_4" function="internal">
        <lane id=":194_4_0" index="0" disallow="tram rail_urban rail rail_electric rail_fast ship" speed="8.12" length="14.57" shape="890.16,656.81 884.91,657.24 881.03,656.77 878.54,655.39 877.42,653.10"/>
    </edge>
    <edge id=":194_5" function="internal">
        <lane id=":194_5_0" index="0" disallow="tram rail_urban rail rail_electric rail_fast ship" speed="13.89" length="11.21" shape="883.74,652.12 885.50,663.19"/>
        <lane id=":194_5_1" index="1" disallow="tram rail_urban rail rail_electric rail_fast ship" speed="13.89" length="11.21" shape="880.58,652.61 882.34,663.69"/>
    </edge>
    <edge id=":194_7" function="internal">
        <lane id=":194_7_0" index="0" disallow="tram rail_urban rail rail_electric rail_fast ship" speed="3.65" length="1.44" shape="880.58,652.61 879.98,653.92"/>
    </edge>
    <edge id=":194_9" function="internal">
        <lane id=":194_9_0" index="0" disallow="tram rail_urban rail rail_electric rail_fast ship" speed="3.65" length="3.23" shape="879.98,653.92 879.25,654.44 878.40,654.17 877.42,653.10"/>
    </edge>
    <edge id=":195_0" function="internal">
        <lane id=":195_0_0" index="0" disallow="tram rail_urban rail rail_electric rail_fast ship" speed="13.89" length="0.27" shape="979.69,643.40 979.41,643.44"/>
    </edge>
    <edge id=":196_0" function="internal">
        <lane id=":196_0_0" index="0" disallow="tram rail_urban rail rail_electric rail_fast ship" speed="13.89" length="0.30" shape="1029.07,634.86 1028.77,634.92"/>
    </edge>
    <edge id=":197_0" function="internal">
        <lane id=":197_0_0" index="0" disallow="tram rail_urban rail rail_electric rail_fast ship" speed="3.90" length="2.62" shape="1052.86,632.31 1052.65,631.62 1052.27,631.17 1051.72,630.96 1051.00,630.98"/>
    </edge>
    <edge id=":216_0" function="internal">
        <lane id=":216_0_0" index="0" disallow="tram rail_urban rail rail_electric rail_fast ship" speed="13.89" length="0.23" shape="1083.37,1301.65 1083.34,1301.42"/>
    </edge>
    <edge id=":216_1" function="internal">
        <lane id=":216_1_0" index="0" disallow="tram rail_urban rail rail_electric rail_fast ship" speed="3.65" length="2.34" shape="1083.37,1301.65 1084.01,1300.35 1084.75,1299.86"/>
    </edge>
    <edge id=":216_4" function="internal">
        <lane id=":216_4_0" index="0" disallow="tram rail_urban rail rail_electric rail_fast ship" speed="3.65" length="2.34" shape="1084.75,1299.86 1085.60,1300.15 1086.54,1301.24"/>
    </edge>
    <edge id=":216_2" function="internal">
        <lane id=":216_2_0" index="0" disallow="tram rail_urban rail rail_electric rail_fast ship" speed="13.89" length="0.31" shape="1086.50,1300.93 1086.54,1301.24"/>
    </edge>
    <edge id=":216_3" function="internal">
        <lane id=":216_3_0" index="0" disallow="tram rail_urban rail rail_electric rail_fast ship" speed="3.65" length="2.34" shape="1086.50,1300.93 1085.89,1302.24 1085.16,1302.76"/>
    </edge>
    <edge id=":216_5" function="internal">
        <lane id=":216_5_0" index="0" disallow="tram rail_urban rail rail_electric rail_fast ship" speed="3.65" length="2.34" shape="1085.16,1302.76 1084.31,1302.49 1083.34,1301.42"/>
    </edge>
    <edge id=":220_0" function="internal">
        <lane id=":220_0_0" index="0" disallow="tram rail_urban rail rail_electric rail_fast ship" speed="3.93" length="2.23" shape="1196.37,1236.88 1196.95,1237.02 1197.47,1236.97 1197.92,1236.71 1198.31,1236.26"/>
    </edge>
    <edge id=":221_0" function="internal">
        <lane id=":221_0_0" index="0" disallow="tram rail_urban rail rail_electric rail_fast ship" speed="4.34" length="1.11" shape="1239.56,1171.35 1239.72,1171.06 1239.79,1170.84 1239.80,1170.61 1239.75,1170.29"/>
    </edge>
    <edge id=":226_0" function="internal">
        <lane id=":226_0_0" index="0" disallow="tram rail_urban rail rail_electric rail_fast ship" speed="16.67" length="0.30" shape="957.58,852.74 957.73,853.00"/>
        <lane id=":226_0_1" index="1" disallow="tram rail_urban rail rail_electric rail_fast ship" speed="16.67" length="0.30" shape="954.81,854.34 954.96,854.60"/>
    </edge>
    <edge id=":227_0" function="internal">
        <lane id=":227_0_0" index="0" disallow="tram rail_urban rail rail_electric rail_fast ship" speed="13.89" length="0.26" shape="1182.80,818.33 1182.76,818.07"/>
    </edge>
    <edge id=":231_0" function="internal">
        <lane id=":231_0_0" index="0" disallow="tram rail_urban rail rail_electric rail_fast ship" speed="13.89" length="11.08" shape="802.51,201.82 800.69,190.91"/>
        <lane id=":231_0_1" index="1" disallow="tram rail_urban rail rail_electric rail_fast ship" speed="13.89" length="11.08" shape="805.67,201.31 803.84,190.36"/>
    </edge>
    <edge id=":231_2" function="internal">
        <lane id=":231_2_0" index="0" disallow="tram rail_urban rail rail_electric rail_fast ship" speed="3.65" length="1.44" shape="805.67,201.31 806.27,200.00"/>
    </edge>
    <edge id=":231_8" function="internal">
        <lane id=":231_8_0" index="0" disallow="tram rail_urban rail rail_electric rail_fast ship" speed="3.65" length="3.23" shape="806.27,200.00 806.99,199.48 807.85,199.75 808.83,200.80"/>
    </edge>
    <edge id=":231_3" function="internal">
        <lane id=":231_3_0" index="0" disallow="tram rail_urban rail rail_electric rail_fast ship" speed="6.13" length="9.32" shape="816.72,194.24 814.26,194.45 812.65,195.53 811.89,197.48 811.99,200.30"/>
    </edge>
    <edge id=":231_4" function="internal">
        <lane id=":231_4_0" index="0" disallow="tram rail_urban rail rail_electric rail_fast ship" speed="8.75" length="13.91" shape="816.72,194.24 811.28,193.64 807.32,192.80 804.84,191.71 803.84,190.36"/>
    </edge>
    <edge id=":231_5" function="internal">
        <lane id=":231_5_0" index="0" disallow="tram rail_urban rail rail_electric rail_fast ship" speed="13.89" length="11.16" shape="810.15,189.27 811.99,200.30"/>
        <lane id=":231_5_1" index="1" disallow="tram rail_urban rail rail_electric rail_fast ship" speed="13.89" length="11.16" shape="807.00,189.82 808.83,200.80"/>
    </edge>
    <edge id=":231_7" function="internal">
        <lane id=":231_7_0" index="0" disallow="tram rail_urban rail rail_electric rail_fast ship" speed="3.65" length="1.44" shape="807.00,189.82 806.41,191.13"/>
    </edge>
    <edge id=":231_9" function="internal">
        <lane id=":231_9_0" index="0" disallow="tram rail_urban rail rail_electric rail_fast ship" speed="3.65" length="3.23" shape="806.41,191.13 805.69,191.67 804.84,191.41 803.84,190.36"/>
    </edge>
    <edge id=":241_0" function="internal">
        <lane id=":241_0_0" index="0" disallow="tram rail_urban rail rail_electric rail_fast ship" speed="3.65" length="4.67" shape="773.77,12.61 774.36,11.29 775.08,10.76 775.94,11.02 776.93,12.07"/>
    </edge>
    <edge id=":270_0" function="internal">
        <lane id=":270_0_0" index="0" disallow="tram rail_urban rail rail_electric rail_fast ship" speed="13.89" length="10.85" shape="815.57,998.83 815.43,995.74 815.65,993.41 815.79,991.09 815.45,988.02"/>
    </edge>
    <edge id=":270_1" function="internal">
        <lane id=":270_1_0" index="0" disallow="tram rail_urban rail rail_electric rail_fast ship" speed="6.52" length="4.57" shape="821.72,992.50 819.36,992.49 817.53,991.75 817.37,991.57"/>
    </edge>
    <edge id=":270_2" function="internal">
        <lane id=":270_2_0" index="0" disallow="tram rail_urban rail rail_electric rail_fast ship" speed="6.52" length="4.11" shape="817.37,991.57 816.22,990.26 815.45,988.02"/>
    </edge>
    <edge id=":271_0" function="internal">
        <lane id=":271_0_0" index="0" disallow="tram rail_urban rail rail_electric rail_fast ship" speed="6.52" length="8.96" shape="783.56,771.82 783.56,769.36 784.33,767.47 785.88,766.17 788.21,765.45"/>
    </edge>
    <edge id=":271_1" function="internal">
        <lane id=":271_1_0" index="0" disallow="tram rail_urban rail rail_electric rail_fast ship" speed="16.67" length="11.06" shape="776.79,764.01 787.71,762.29"/>
        <lane id=":271_1_1" index="1" disallow="tram rail_urban rail rail_electric rail_fast ship" speed="16.67" length="11.06" shape="777.28,767.17 788.21,765.45"/>
    </edge>
    <edge id=":274_0" function="internal">
        <lane id=":274_0_0" index="0" disallow="tram rail_urban rail rail_electric rail_fast ship" speed="3.90" length="2.59" shape="972.04,1369.29 971.36,1369.49 970.91,1369.86 970.68,1370.40 970.68,1371.11"/>
    </edge>
    <edge id=":276_0" function="internal">
        <lane id=":276_0_0" index="0" disallow="tram rail_urban rail rail_electric rail_fast ship" speed="13.89" length="0.10" shape="937.48,1574.10 937.48,1574.10"/>
    </edge>
    <edge id=":277_0" function="internal">
        <lane id=":277_0_0" index="0" disallow="tram rail_urban rail rail_electric rail_fast ship" speed="13.89" length="0.23" shape="907.83,1718.83 907.84,1718.90 907.85,1718.95 907.86,1719.00 907.88,1719.06"/>
    </edge>
    <edge id=":278_0" function="internal">
        <lane id=":278_0_0" index="0" disallow="tram rail_urban rail rail_electric rail_fast ship" speed="13.89" length="0.27" shape="1092.81,1645.25 1092.77,1644.99"/>
    </edge>
    <edge id=":278_1" function="internal">
        <lane id=":278_1_0" index="0" disallow="tram rail_urban rail rail_electric rail_fast ship" speed="3.65" length="2.34" shape="1092.81,1645.25 1093.42,1643.94 1094.14,1643.42"/>
    </edge>
    <edge id=":278_4" function="internal">
        <lane id=":278_4_0" index="0" disallow="tram rail_urban rail rail_electric rail_fast ship" speed="3.65" length="2.34" shape="1094.14,1643.42 1095.00,1643.69 1095.97,1644.76"/>
    </edge>
    <edge id=":278_2" function="internal">
        <lane id=":278_2_0" index="0" disallow="tram rail_urban rail rail_electric rail_fast ship" speed="13.89" length="0.31" shape="1095.92,1644.45 1095.97,1644.76"/>
    </edge>
    <edge id=":278_3" function="internal">
        <lane id=":278_3_0" index="0" disallow="tram rail_urban rail rail_electric rail_fast ship" speed="3.65" length="2.34" shape="1095.92,1644.45 1095.34,1645.76 1094.62,1646.29"/>
    </edge>
    <edge id=":278_5" function="internal">
        <lane id=":278_5_0" index="0" disallow="tram rail_urban rail rail_electric rail_fast ship" speed="3.65" length="2.34" shape="1094.62,1646.29 1093.76,1646.03 1092.77,1644.99"/>
    </edge>
    <edge id=":296_0" function="internal">
        <lane id=":296_0_0" index="0" disallow="tram rail_urban rail rail_electric rail_fast ship" speed="16.67" length="0.25" shape="512.50,820.54 512.81,820.45"/>
        <lane id=":296_0_1" index="1" disallow="tram rail_urban rail rail_electric rail_fast ship" speed="16.67" length="0.25" shape="513.45,823.60 513.63,823.54"/>
    </edge>
    <edge id=":297_0" function="internal">
        <lane id=":297_0_0" index="0" disallow="tram rail_urban rail rail_electric rail_fast ship" speed="13.89" length="0.30" shape="830.48,1098.04 830.44,1097.74"/>
    </edge>
    <edge id=":301_0" function="internal">
        <lane id=":301_0_0" index="0" disallow="tram rail_urban rail rail_electric rail_fast ship" speed="13.89" length="10.33" shape="886.09,237.01 887.85,234.62 888.59,232.65 888.95,230.48 889.60,227.49"/>
    </edge>
    <edge id=":301_1" function="internal">
        <lane id=":301_1_0" index="0" disallow="tram rail_urban rail rail_electric rail_fast ship" speed="13.89" length="10.30" shape="886.09,237.01 892.93,229.31"/>
    </edge>
    <edge id=":302_0" function="internal">
        <lane id=":302_0_0" index="0" disallow="tram rail_urban rail rail_electric rail_fast ship" speed="11.71" length="8.60" shape="883.41,203.17 881.53,201.40 880.22,200.10 878.73,199.23 876.32,198.79"/>
    </edge>
    <edge id=":302_1" function="internal">
        <lane id=":302_1_0" index="0" disallow="tram rail_urban rail rail_electric rail_fast ship" speed="13.89" length="8.62" shape="884.91,199.51 876.32,198.79"/>
    </edge>
    <edge id=":304_0" function="internal">