<?xml version="1.0" encoding="UTF-8"?>

<!-- generated on 2022-10-09 19:00:23 by Eclipse SUMO netconvert Version 1.12.0
<configuration xmlns:xsi="http://www.w3.org/2001/XMLSchema-instance" xsi:noNamespaceSchemaLocation="http://sumo.dlr.de/xsd/netconvertConfiguration.xsd">

    <input>
        <sumo-net-file value="/home/svadlmat/UTC/utc/data/maps/sumo/Sydney.net.xml"/>
    </input>

    <output>
        <output-file value="/home/svadlmat/UTC/utc/data/scenarios/19_00_18_sydney/maps/networks/19_00_18_sydney_default_sg.net.xml"/>
    </output>

    <processing>
        <geometry.min-radius.fix.railways value="false"/>
        <geometry.max-grade.fix value="false"/>
        <offset.disable-normalization value="true"/>
        <lefthand value="false"/>
    </processing>

    <edge_removal>
        <keep-edges.explicit value="447,615,428,427,99,285,535,117,832,448,89,827,21,20,929,1038,445,333,210,1039,563,759,989,990,551,286,959,585,426,628,969,553,331,87,123,233,341,284,283,51,590,829,884,1006,768,415,425,1010,616,404,332,865,513,649,889,988,1007,872,12,833,211,379,760,9,1013,750,583,512,338,292,509,511,554,287,831,1028,890,516,82,430,346,826,18,374,569,213,62,552,84,405,965,894,524,897,507,769,970,488,339,424,502,527,93,828,526,837,212,1005,98,116,931,10,342,550,885,627,112,318,641,619,741,15,515,508,410,423,587,375,538,618,378,958,978,232,449,19,758,984,886,891,968,774,1012,11,113,964,288,525,1041,399,985,592,742,111,38,209,1033,957,400,751,411,124,86,92,523,967,17,766,645,1002,1004,289,16,403,1003,977,739,609,549"/>
    </edge_removal>

    <junctions>
        <no-turnarounds value="true"/>
        <junctions.corner-detail value="5"/>
        <junctions.limit-turn-speed value="5.5"/>
        <rectangular-lane-cut value="false"/>
    </junctions>

    <pedestrian>
        <walkingareas value="false"/>
    </pedestrian>

    <report>
        <aggregate-warnings value="5"/>
    </report>

</configuration>
-->

<net version="1.9" junctionCornerDetail="5" limitTurnSpeed="5.50" xmlns:xsi="http://www.w3.org/2001/XMLSchema-instance" xsi:noNamespaceSchemaLocation="http://sumo.dlr.de/xsd/net_file.xsd">

    <location netOffset="-336586.08,3754670.31" convBoundary="160.64,12.34,1648.65,2196.77" origBoundary="151.232525,-33.920080,151.266296,-33.899237" projParameter="+proj=utm +zone=56 +ellps=WGS84 +datum=WGS84 +units=m +no_defs"/>

    <type id="highway.bridleway" priority="1" numLanes="1" speed="2.78" allow="pedestrian" oneway="1" width="2.00"/>
    <type id="highway.bus_guideway" priority="1" numLanes="1" speed="27.78" allow="bus" oneway="1"/>
    <type id="highway.cycleway" priority="1" numLanes="1" speed="8.33" allow="bicycle" oneway="0" width="1.00"/>
    <type id="highway.footway" priority="1" numLanes="1" speed="2.78" allow="pedestrian" oneway="1" width="2.00"/>
    <type id="highway.ford" priority="1" numLanes="1" speed="2.78" allow="army" oneway="0"/>
    <type id="highway.living_street" priority="2" numLanes="1" speed="2.78" disallow="tram rail_urban rail rail_electric rail_fast ship" oneway="0"/>
    <type id="highway.motorway" priority="14" numLanes="2" speed="39.44" allow="private emergency authority army vip passenger hov taxi bus coach delivery truck trailer motorcycle evehicle custom1 custom2" oneway="1"/>
    <type id="highway.motorway_link" priority="9" numLanes="1" speed="22.22" allow="private emergency authority army vip passenger hov taxi bus coach delivery truck trailer motorcycle evehicle custom1 custom2" oneway="1"/>
    <type id="highway.path" priority="1" numLanes="1" speed="2.78" allow="pedestrian bicycle" oneway="0" width="2.00"/>
    <type id="highway.pedestrian" priority="1" numLanes="1" speed="2.78" allow="pedestrian" oneway="1" width="2.00"/>
    <type id="highway.primary" priority="12" numLanes="2" speed="27.78" disallow="tram rail_urban rail rail_electric rail_fast ship" oneway="0"/>
    <type id="highway.primary_link" priority="7" numLanes="1" speed="22.22" disallow="tram rail_urban rail rail_electric rail_fast ship" oneway="0"/>
    <type id="highway.raceway" priority="15" numLanes="2" speed="83.33" allow="vip" oneway="0"/>
    <type id="highway.residential" priority="3" numLanes="1" speed="13.89" disallow="tram rail_urban rail rail_electric rail_fast ship" oneway="0"/>
    <type id="highway.secondary" priority="11" numLanes="1" speed="27.78" disallow="tram rail_urban rail rail_electric rail_fast ship" oneway="0"/>
    <type id="highway.secondary_link" priority="6" numLanes="1" speed="22.22" disallow="tram rail_urban rail rail_electric rail_fast ship" oneway="0"/>
    <type id="highway.service" priority="1" numLanes="1" speed="5.56" allow="pedestrian delivery bicycle" oneway="0"/>
    <type id="highway.stairs" priority="1" numLanes="1" speed="1.39" allow="pedestrian" oneway="1" width="2.00"/>
    <type id="highway.step" priority="1" numLanes="1" speed="1.39" allow="pedestrian" oneway="1" width="2.00"/>
    <type id="highway.steps" priority="1" numLanes="1" speed="1.39" allow="pedestrian" oneway="1" width="2.00"/>
    <type id="highway.tertiary" priority="10" numLanes="1" speed="22.22" disallow="tram rail_urban rail rail_electric rail_fast ship" oneway="0"/>
    <type id="highway.tertiary_link" priority="5" numLanes="1" speed="22.22" disallow="tram rail_urban rail rail_electric rail_fast ship" oneway="0"/>
    <type id="highway.track" priority="1" numLanes="1" speed="5.56" allow="pedestrian motorcycle moped bicycle" oneway="0"/>
    <type id="highway.trunk" priority="13" numLanes="2" speed="27.78" disallow="pedestrian bicycle tram rail_urban rail rail_electric rail_fast ship" oneway="0"/>
    <type id="highway.trunk_link" priority="8" numLanes="1" speed="22.22" disallow="pedestrian bicycle tram rail_urban rail rail_electric rail_fast ship" oneway="0"/>
    <type id="highway.unclassified" priority="4" numLanes="1" speed="13.89" disallow="tram rail_urban rail rail_electric rail_fast ship" oneway="0"/>
    <type id="highway.unsurfaced" priority="1" numLanes="1" speed="8.33" disallow="tram rail_urban rail rail_electric rail_fast ship" oneway="0"/>
    <type id="railway.highspeed" priority="21" numLanes="1" speed="69.44" allow="rail_fast" oneway="1"/>
    <type id="railway.light_rail" priority="19" numLanes="1" speed="27.78" allow="rail_urban" oneway="1"/>
    <type id="railway.preserved" priority="16" numLanes="1" speed="27.78" allow="rail" oneway="1"/>
    <type id="railway.rail" priority="20" numLanes="1" speed="44.44" allow="rail" oneway="1"/>
    <type id="railway.subway" priority="18" numLanes="1" speed="27.78" allow="rail_urban" oneway="1"/>
    <type id="railway.tram" priority="17" numLanes="1" speed="13.89" allow="tram" oneway="1"/>

    <edge id=":102_0" function="internal">
        <lane id=":102_0_0" index="0" disallow="tram rail_urban rail rail_electric rail_fast ship" speed="3.90" length="2.63" shape="1138.29,482.71 1138.98,482.50 1139.43,482.12 1139.64,481.57 1139.61,480.84"/>
    </edge>
    <edge id=":104_0" function="internal">
        <lane id=":104_0_0" index="0" disallow="tram rail_urban rail rail_electric rail_fast ship" speed="3.90" length="2.59" shape="1531.40,383.31 1532.08,383.10 1532.52,382.72 1532.74,382.18 1532.73,381.47"/>
    </edge>
    <edge id=":107_0" function="internal">
        <lane id=":107_0_0" index="0" disallow="tram rail_urban rail rail_electric rail_fast ship" speed="13.89" length="0.29" shape="948.66,199.83 948.37,199.89"/>
    </edge>
    <edge id=":107_1" function="internal">
        <lane id=":107_1_0" index="0" disallow="tram rail_urban rail rail_electric rail_fast ship" speed="3.65" length="2.34" shape="948.66,199.83 947.33,199.27 946.79,198.57"/>
    </edge>
    <edge id=":107_4" function="internal">
        <lane id=":107_4_0" index="0" disallow="tram rail_urban rail rail_electric rail_fast ship" speed="3.65" length="2.34" shape="946.79,198.57 947.03,197.70 948.05,196.69"/>
    </edge>
    <edge id=":107_2" function="internal">
        <lane id=":107_2_0" index="0" disallow="tram rail_urban rail rail_electric rail_fast ship" speed="13.89" length="0.31" shape="947.75,196.75 948.05,196.69"/>
    </edge>
    <edge id=":107_3" function="internal">
        <lane id=":107_3_0" index="0" disallow="tram rail_urban rail rail_electric rail_fast ship" speed="3.65" length="2.34" shape="947.75,196.75 949.08,197.30 949.63,198.01"/>
    </edge>
    <edge id=":107_5" function="internal">
        <lane id=":107_5_0" index="0" disallow="tram rail_urban rail rail_electric rail_fast ship" speed="3.65" length="2.34" shape="949.63,198.01 949.40,198.87 948.37,199.89"/>
    </edge>
    <edge id=":109_0" function="internal">
        <lane id=":109_0_0" index="0" disallow="tram rail_urban rail rail_electric rail_fast ship" speed="3.90" length="2.59" shape="1134.48,453.06 1134.45,452.35 1134.65,451.80 1135.09,451.42 1135.77,451.19"/>
    </edge>
    <edge id=":112_0" function="internal">
        <lane id=":112_0_0" index="0" disallow="tram rail_urban rail rail_electric rail_fast ship" speed="6.07" length="0.98" shape="1405.98,304.82 1406.08,303.85"/>
    </edge>
    <edge id=":112_1" function="internal">
        <lane id=":112_1_0" index="0" disallow="tram rail_urban rail rail_electric rail_fast ship" speed="3.65" length="0.95" shape="1405.98,304.82 1406.36,303.96"/>
    </edge>
    <edge id=":112_4" function="internal">
        <lane id=":112_4_0" index="0" disallow="tram rail_urban rail rail_electric rail_fast ship" speed="6.07" length="6.82" shape="1406.08,303.85 1406.12,303.40 1407.12,302.23 1408.96,301.32 1411.66,300.67"/>
    </edge>
    <edge id=":112_5" function="internal">
        <lane id=":112_5_0" index="0" disallow="tram rail_urban rail rail_electric rail_fast ship" speed="3.65" length="3.73" shape="1406.36,303.96 1406.55,303.50 1407.27,302.97 1408.13,303.22 1409.13,304.26"/>
    </edge>
    <edge id=":112_2" function="internal">
        <lane id=":112_2_0" index="0" disallow="tram rail_urban rail rail_electric rail_fast ship" speed="13.89" length="9.38" shape="1402.39,302.15 1411.66,300.67"/>
    </edge>
    <edge id=":112_3" function="internal">
        <lane id=":112_3_0" index="0" disallow="tram rail_urban rail rail_electric rail_fast ship" speed="6.14" length="7.77" shape="1402.39,302.15 1405.13,301.93 1407.17,302.20 1408.50,302.98 1409.13,304.26"/>
    </edge>
    <edge id=":113_0" function="internal">
        <lane id=":113_0_0" index="0" disallow="tram rail_urban rail rail_electric rail_fast ship" speed="27.78" length="0.30" shape="1489.79,115.20 1489.75,114.90"/>
    </edge>
    <edge id=":116_0" function="internal">
        <lane id=":116_0_0" index="0" disallow="tram rail_urban rail rail_electric rail_fast ship" speed="13.89" length="0.29" shape="444.08,626.20 444.03,625.92"/>
    </edge>
    <edge id=":127_0" function="internal">
        <lane id=":127_0_0" index="0" disallow="tram rail_urban rail rail_electric rail_fast ship" speed="20.84" length="0.29" shape="1528.42,354.76 1528.38,354.47"/>
    </edge>
    <edge id=":160_0" function="internal">
        <lane id=":160_0_0" index="0" disallow="tram rail_urban rail rail_electric rail_fast ship" speed="6.08" length="7.60" shape="845.37,1161.08 843.30,1161.06 841.71,1160.39 840.61,1159.07 839.99,1157.09"/>
    </edge>
    <edge id=":160_1" function="internal">
        <lane id=":160_1_0" index="0" disallow="tram rail_urban rail rail_electric rail_fast ship" speed="3.65" length="4.67" shape="845.37,1161.08 844.08,1160.45 843.57,1159.71 843.86,1158.86 844.95,1157.91"/>
    </edge>
    <edge id=":160_2" function="internal">
        <lane id=":160_2_0" index="0" disallow="tram rail_urban rail rail_electric rail_fast ship" speed="3.91" length="2.53" shape="843.15,1156.58 843.36,1157.24 843.73,1157.68 844.26,1157.90 844.95,1157.91"/>
    </edge>
    <edge id=":160_3" function="internal">
        <lane id=":160_3_0" index="0" disallow="tram rail_urban rail rail_electric rail_fast ship" speed="3.65" length="4.67" shape="843.15,1156.58 842.55,1157.89 841.83,1158.41 840.98,1158.14 839.99,1157.09"/>
    </edge>
    <edge id=":165_0" function="internal">
        <lane id=":165_0_0" index="0" disallow="tram rail_urban rail rail_electric rail_fast ship" speed="13.89" length="0.31" shape="877.64,1156.74 877.33,1156.79"/>
    </edge>
    <edge id=":165_1" function="internal">
        <lane id=":165_1_0" index="0" disallow="tram rail_urban rail rail_electric rail_fast ship" speed="3.65" length="2.34" shape="877.64,1156.74 876.33,1156.12 875.82,1155.39"/>
    </edge>
    <edge id=":165_4" function="internal">
        <lane id=":165_4_0" index="0" disallow="tram rail_urban rail rail_electric rail_fast ship" speed="3.65" length="2.34" shape="875.82,1155.39 876.10,1154.54 877.18,1153.58"/>
    </edge>
    <edge id=":165_2" function="internal">
        <lane id=":165_2_0" index="0" disallow="tram rail_urban rail rail_electric rail_fast ship" speed="13.89" length="0.28" shape="876.90,1153.61 877.18,1153.58"/>
    </edge>
    <edge id=":165_3" function="internal">
        <lane id=":165_3_0" index="0" disallow="tram rail_urban rail rail_electric rail_fast ship" speed="3.65" length="2.34" shape="876.90,1153.61 878.20,1154.25 878.70,1154.99"/>
    </edge>
    <edge id=":165_5" function="internal">
        <lane id=":165_5_0" index="0" disallow="tram rail_urban rail rail_electric rail_fast ship" speed="3.65" length="2.34" shape="878.70,1154.99 878.41,1155.83 877.33,1156.79"/>
    </edge>
    <edge id=":168_0" function="internal">
        <lane id=":168_0_0" index="0" disallow="tram rail_urban rail rail_electric rail_fast ship" speed="6.58" length="9.12" shape="1117.92,1828.99 1117.21,1826.62 1115.89,1825.04 1113.98,1824.24 1111.46,1824.22"/>
    </edge>
    <edge id=":168_1" function="internal">
        <lane id=":168_1_0" index="0" disallow="tram rail_urban rail rail_electric rail_fast ship" speed="13.89" length="14.40" shape="1117.92,1828.99 1115.79,1814.74"/>
        <lane id=":168_1_1" index="1" disallow="tram rail_urban rail rail_electric rail_fast ship" speed="13.89" length="14.40" shape="1121.08,1828.52 1118.96,1814.27"/>
    </edge>
    <edge id=":168_3" function="internal">
        <lane id=":168_3_0" index="0" disallow="tram rail_urban rail rail_electric rail_fast ship" speed="3.65" length="1.44" shape="1121.08,1828.52 1121.70,1827.21"/>
    </edge>
    <edge id=":168_11" function="internal">
        <lane id=":168_11_0" index="0" disallow="tram rail_urban rail rail_electric rail_fast ship" speed="3.65" length="3.23" shape="1121.70,1827.21 1122.43,1826.70 1123.28,1826.98 1124.25,1828.05"/>
    </edge>
    <edge id=":168_4" function="internal">
        <lane id=":168_4_0" index="0" disallow="tram rail_urban rail rail_electric rail_fast ship" speed="13.89" length="14.40" shape="1125.29,1813.33 1127.41,1827.57"/>
        <lane id=":168_4_1" index="1" disallow="tram rail_urban rail rail_electric rail_fast ship" speed="13.89" length="14.40" shape="1122.12,1813.80 1124.25,1828.05"/>
    </edge>
    <edge id=":168_6" function="internal">
        <lane id=":168_6_0" index="0" disallow="tram rail_urban rail rail_electric rail_fast ship" speed="8.64" length="3.75" shape="1122.12,1813.80 1121.96,1817.55"/>
    </edge>
    <edge id=":168_7" function="internal">
        <lane id=":168_7_0" index="0" disallow="tram rail_urban rail rail_electric rail_fast ship" speed="3.65" length="1.44" shape="1122.12,1813.80 1121.51,1815.11"/>
    </edge>
    <edge id=":168_12" function="internal">
        <lane id=":168_12_0" index="0" disallow="tram rail_urban rail rail_electric rail_fast ship" speed="8.64" length="13.20" shape="1121.96,1817.55 1121.95,1817.77 1120.12,1820.83 1116.62,1822.98 1111.46,1824.22"/>
    </edge>
    <edge id=":168_13" function="internal">
        <lane id=":168_13_0" index="0" disallow="tram rail_urban rail rail_electric rail_fast ship" speed="3.65" length="3.23" shape="1121.51,1815.11 1120.78,1815.62 1119.93,1815.34 1118.96,1814.27"/>
    </edge>
    <edge id=":168_8" function="internal">
        <lane id=":168_8_0" index="0" disallow="tram rail_urban rail rail_electric rail_fast ship" speed="6.47" length="9.03" shape="1111.04,1821.04 1113.43,1820.37 1115.02,1819.10 1115.81,1817.23 1115.79,1814.74"/>
    </edge>
    <edge id=":168_9" function="internal">
        <lane id=":168_9_0" index="0" disallow="tram rail_urban rail rail_electric rail_fast ship" speed="8.73" length="16.85" shape="1111.04,1821.04 1116.34,1820.89 1120.31,1822.01 1122.94,1824.40 1124.25,1828.05"/>
    </edge>
    <edge id=":168_10" function="internal">
        <lane id=":168_10_0" index="0" disallow="tram rail_urban rail rail_electric rail_fast ship" speed="3.65" length="4.67" shape="1111.04,1821.04 1112.34,1821.68 1112.84,1822.42 1112.55,1823.27 1111.46,1824.22"/>
    </edge>
    <edge id=":174_0" function="internal">
        <lane id=":174_0_0" index="0" disallow="tram rail_urban rail rail_electric rail_fast ship" speed="7.77" length="14.77" shape="973.18,1808.55 970.75,1805.21 970.11,1802.02 971.27,1798.98 974.23,1796.09"/>
    </edge>
    <edge id=":174_1" function="internal">
        <lane id=":174_1_0" index="0" disallow="tram rail_urban rail rail_electric rail_fast ship" speed="3.65" length="4.67" shape="973.18,1808.55 972.92,1807.13 973.21,1806.28 974.06,1806.01 975.47,1806.31"/>
    </edge>
    <edge id=":174_2" function="internal">
        <lane id=":174_2_0" index="0" disallow="tram rail_urban rail rail_electric rail_fast ship" speed="6.22" length="9.05" shape="976.11,1798.68 974.30,1800.45 973.59,1802.31 973.98,1804.26 975.47,1806.31"/>
    </edge>
    <edge id=":174_3" function="internal">
        <lane id=":174_3_0" index="0" disallow="tram rail_urban rail rail_electric rail_fast ship" speed="3.65" length="4.67" shape="976.11,1798.68 974.67,1798.74 973.88,1798.33 973.73,1797.45 974.23,1796.09"/>
    </edge>
    <edge id=":174_4" function="internal">
        <lane id=":174_4_0" index="0" disallow="tram rail_urban rail rail_electric rail_fast ship" speed="6.89" length="9.64" shape="965.65,1795.58 967.52,1797.18 969.57,1797.80 971.81,1797.43 974.23,1796.09"/>
    </edge>
    <edge id=":174_5" function="internal">
        <lane id=":174_5_0" index="0" disallow="tram rail_urban rail rail_electric rail_fast ship" speed="13.89" length="14.55" shape="965.65,1795.58 975.47,1806.31"/>
    </edge>
    <edge id=":183_0" function="internal">
        <lane id=":183_0_0" index="0" disallow="tram rail_urban rail rail_electric rail_fast ship" speed="5.56" length="9.40" shape="1099.92,1711.18 1099.11,1708.39 1097.82,1707.14 1096.04,1707.41 1093.78,1709.23"/>
    </edge>
    <edge id=":183_1" function="internal">
        <lane id=":183_1_0" index="0" disallow="tram rail_urban rail rail_electric rail_fast ship" speed="13.89" length="19.91" shape="1099.92,1711.18 1099.39,1704.63 1099.69,1699.42 1100.13,1695.13 1100.04,1691.32"/>
    </edge>
    <edge id=":183_2" function="internal">
        <lane id=":183_2_0" index="0" disallow="tram rail_urban rail rail_electric rail_fast ship" speed="3.65" length="1.44" shape="1103.08,1710.68 1103.68,1709.37"/>
    </edge>
    <edge id=":183_12" function="internal">
        <lane id=":183_12_0" index="0" disallow="tram rail_urban rail rail_electric rail_fast ship" speed="3.65" length="3.23" shape="1103.68,1709.37 1104.41,1708.85 1105.26,1709.12 1106.24,1710.19"/>
    </edge>
    <edge id=":183_3" function="internal">
        <lane id=":183_3_0" index="0" disallow="tram rail_urban rail rail_electric rail_fast ship" speed="13.35" length="18.67" shape="1110.12,1691.37 1108.94,1693.88 1108.43,1697.76 1108.58,1703.04 1109.40,1709.69"/>
    </edge>
    <edge id=":183_4" function="internal">
        <lane id=":183_4_0" index="0" disallow="tram rail_urban rail rail_electric rail_fast ship" speed="18.05" length="24.21" shape="1110.12,1691.37 1093.78,1709.23"/>
    </edge>
    <edge id=":183_5" function="internal">
        <lane id=":183_5_0" index="0" disallow="tram rail_urban rail rail_electric rail_fast ship" speed="6.73" length="11.05" shape="1110.12,1691.37 1106.31,1695.17 1103.36,1696.43 1101.27,1695.15"/>
    </edge>
    <edge id=":183_13" function="internal">
        <lane id=":183_13_0" index="0" disallow="tram rail_urban rail rail_electric rail_fast ship" speed="6.73" length="4.02" shape="1101.27,1695.15 1100.04,1691.32"/>
    </edge>
    <edge id=":183_6" function="internal">
        <lane id=":183_6_0" index="0" disallow="tram rail_urban rail rail_electric rail_fast ship" speed="13.89" length="19.60" shape="1103.20,1690.82 1106.24,1710.19"/>
    </edge>
    <edge id=":183_7" function="internal">
        <lane id=":183_7_0" index="0" disallow="tram rail_urban rail rail_electric rail_fast ship" speed="13.44" length="5.30" shape="1103.20,1690.82 1103.05,1694.79 1102.59,1696.04"/>
    </edge>
    <edge id=":183_8" function="internal">
        <lane id=":183_8_0" index="0" disallow="tram rail_urban rail rail_electric rail_fast ship" speed="3.65" length="1.44" shape="1103.20,1690.82 1102.59,1692.13"/>
    </edge>
    <edge id=":183_14" function="internal">
        <lane id=":183_14_0" index="0" disallow="tram rail_urban rail rail_electric rail_fast ship" speed="13.44" length="16.02" shape="1102.59,1696.04 1101.43,1699.18 1098.34,1703.99 1093.78,1709.23"/>
    </edge>
    <edge id=":183_15" function="internal">
        <lane id=":183_15_0" index="0" disallow="tram rail_urban rail rail_electric rail_fast ship" speed="3.65" length="3.23" shape="1102.59,1692.13 1101.86,1692.65 1101.01,1692.38 1100.04,1691.32"/>
    </edge>
    <edge id=":183_9" function="internal">
        <lane id=":183_9_0" index="0" disallow="tram rail_urban rail rail_electric rail_fast ship" speed="12.50" length="18.37" shape="1091.48,1707.00 1095.57,1702.36 1098.36,1698.20 1099.85,1694.52 1100.04,1691.32"/>
    </edge>
    <edge id=":183_10" function="internal">
        <lane id=":183_10_0" index="0" disallow="tram rail_urban rail rail_electric rail_fast ship" speed="8.14" length="4.98" shape="1091.48,1707.00 1095.34,1703.84"/>
    </edge>
    <edge id=":183_11" function="internal">
        <lane id=":183_11_0" index="0" disallow="tram rail_urban rail rail_electric rail_fast ship" speed="3.65" length="1.44" shape="1091.48,1707.00 1092.89,1706.69"/>
    </edge>
    <edge id=":183_16" function="internal">
        <lane id=":183_16_0" index="0" disallow="tram rail_urban rail rail_electric rail_fast ship" speed="8.14" length="16.98" shape="1095.34,1703.84 1097.01,1702.47 1101.31,1701.49 1104.38,1704.06 1106.24,1710.19"/>
    </edge>
    <edge id=":183_17" function="internal">
        <lane id=":183_17_0" index="0" disallow="tram rail_urban rail rail_electric rail_fast ship" speed="3.65" length="3.23" shape="1092.89,1706.69 1093.75,1706.97 1094.04,1707.81 1093.78,1709.23"/>
    </edge>
    <edge id=":185_0" function="internal">
        <lane id=":185_0_0" index="0" disallow="tram rail_urban rail rail_electric rail_fast ship" speed="13.89" length="16.96" shape="820.53,312.39 818.03,295.61"/>
        <lane id=":185_0_1" index="1" disallow="tram rail_urban rail rail_electric rail_fast ship" speed="13.89" length="16.96" shape="823.70,311.91 821.20,295.14"/>
    </edge>
    <edge id=":185_2" function="internal">
        <lane id=":185_2_0" index="0" disallow="tram rail_urban rail rail_electric rail_fast ship" speed="13.21" length="2.58" shape="823.70,311.91 824.08,309.36"/>
    </edge>
    <edge id=":185_3" function="internal">
        <lane id=":185_3_0" index="0" disallow="tram rail_urban rail rail_electric rail_fast ship" speed="3.65" length="1.44" shape="823.70,311.91 824.31,310.61"/>
    </edge>
    <edge id=":185_11" function="internal">
        <lane id=":185_11_0" index="0" disallow="tram rail_urban rail rail_electric rail_fast ship" speed="13.21" length="16.45" shape="824.08,309.36 825.85,305.86 829.01,301.41 833.55,296.00"/>
    </edge>
    <edge id=":185_12" function="internal">
        <lane id=":185_12_0" index="0" disallow="tram rail_urban rail rail_electric rail_fast ship" speed="3.65" length="3.23" shape="824.31,310.61 825.04,310.09 825.89,310.37 826.86,311.44"/>
    </edge>
    <edge id=":185_4" function="internal">
        <lane id=":185_4_0" index="0" disallow="tram rail_urban rail rail_electric rail_fast ship" speed="5.52" length="9.51" shape="827.53,294.20 828.31,297.06 829.58,298.32 831.33,297.96 833.55,296.00"/>
    </edge>
    <edge id=":185_5" function="internal">
        <lane id=":185_5_0" index="0" disallow="tram rail_urban rail rail_electric rail_fast ship" speed="13.89" length="16.95" shape="827.53,294.20 830.03,310.96"/>
        <lane id=":185_5_1" index="1" disallow="tram rail_urban rail rail_electric rail_fast ship" speed="13.89" length="16.95" shape="824.36,294.67 826.86,311.44"/>
    </edge>
    <edge id=":185_7" function="internal">
        <lane id=":185_7_0" index="0" disallow="tram rail_urban rail rail_electric rail_fast ship" speed="3.65" length="1.44" shape="824.36,294.67 823.75,295.97"/>
    </edge>
    <edge id=":185_13" function="internal">
        <lane id=":185_13_0" index="0" disallow="tram rail_urban rail rail_electric rail_fast ship" speed="3.65" length="3.23" shape="823.75,295.97 823.02,296.49 822.17,296.21 821.20,295.14"/>
    </edge>
    <edge id=":185_8" function="internal">
        <lane id=":185_8_0" index="0" disallow="tram rail_urban rail rail_electric rail_fast ship" speed="7.92" length="13.99" shape="814.14,307.64 816.47,306.60 817.90,304.25 818.42,300.58 818.03,295.61"/>
    </edge>
    <edge id=":185_9" function="internal">
        <lane id=":185_9_0" index="0" disallow="tram rail_urban rail rail_electric rail_fast ship" speed="16.95" length="22.84" shape="814.14,307.64 818.80,306.05 824.46,302.96 829.81,299.30 833.55,296.00"/>
    </edge>
    <edge id=":185_10" function="internal">
        <lane id=":185_10_0" index="0" disallow="tram rail_urban rail rail_electric rail_fast ship" speed="8.13" length="14.56" shape="814.14,307.64 819.40,307.26 823.27,307.76 825.76,309.16 826.86,311.44"/>
    </edge>
    <edge id=":187_0" function="internal">
        <lane id=":187_0_0" index="0" disallow="tram rail_urban rail rail_electric rail_fast ship" speed="3.93" length="2.21" shape="1167.46,726.56 1167.29,726.00 1166.99,725.58 1166.55,725.31 1165.97,725.20"/>
    </edge>
    <edge id=":187_1" function="internal">
        <lane id=":187_1_0" index="0" disallow="tram rail_urban rail rail_electric rail_fast ship" speed="3.65" length="4.67" shape="1167.46,726.56 1168.07,725.26 1168.81,724.75 1169.66,725.02 1170.62,726.10"/>
    </edge>
    <edge id=":187_2" function="internal">
        <lane id=":187_2_0" index="0" disallow="tram rail_urban rail rail_electric rail_fast ship" speed="6.12" length="6.63" shape="1166.16,722.01 1167.90,722.35 1169.22,723.15 1170.13,724.39 1170.62,726.10"/>
    </edge>
    <edge id=":187_3" function="internal">
        <lane id=":187_3_0" index="0" disallow="tram rail_urban rail rail_electric rail_fast ship" speed="3.65" length="4.67" shape="1166.16,722.01 1167.31,722.88 1167.66,723.70 1167.22,724.47 1165.97,725.20"/>
    </edge>
    <edge id=":188_0" function="internal">
        <lane id=":188_0_0" index="0" disallow="tram rail_urban rail rail_electric rail_fast ship" speed="27.78" length="11.22" shape="1143.04,720.82 1132.07,718.44"/>
    </edge>
    <edge id=":188_1" function="internal">
        <lane id=":188_1_0" index="0" disallow="tram rail_urban rail rail_electric rail_fast ship" speed="8.19" length="1.98" shape="1143.04,720.82 1141.43,719.89 1141.36,719.79"/>
    </edge>
    <edge id=":188_2" function="internal">
        <lane id=":188_2_0" index="0" disallow="tram rail_urban rail rail_electric rail_fast ship" speed="3.65" length="1.44" shape="1143.04,720.82 1142.04,719.78"/>
    </edge>
    <edge id=":188_6" function="internal">
        <lane id=":188_6_0" index="0" disallow="tram rail_urban rail rail_electric rail_fast ship" speed="8.19" length="9.58" shape="1141.36,719.79 1140.17,717.90 1139.27,714.85 1138.72,710.72"/>
    </edge>
    <edge id=":188_7" function="internal">
        <lane id=":188_7_0" index="0" disallow="tram rail_urban rail rail_electric rail_fast ship" speed="3.65" length="3.23" shape="1142.04,719.78 1141.82,718.91 1142.38,718.22 1143.72,717.69"/>
    </edge>
    <edge id=":188_3" function="internal">
        <lane id=":188_3_0" index="0" disallow="tram rail_urban rail rail_electric rail_fast ship" speed="6.03" length="9.31" shape="1132.75,715.31 1135.54,715.55 1137.46,714.86 1138.52,713.25 1138.72,710.72"/>
    </edge>
    <edge id=":188_4" function="internal">
        <lane id=":188_4_0" index="0" disallow="tram rail_urban rail rail_electric rail_fast ship" speed="27.78" length="11.23" shape="1132.75,715.31 1143.72,717.69"/>
    </edge>
    <edge id=":188_5" function="internal">
        <lane id=":188_5_0" index="0" disallow="tram rail_urban rail rail_electric rail_fast ship" speed="3.65" length="1.44" shape="1132.75,715.31 1133.75,716.35"/>
    </edge>
    <edge id=":188_8" function="internal">
        <lane id=":188_8_0" index="0" disallow="tram rail_urban rail rail_electric rail_fast ship" speed="3.65" length="3.23" shape="1133.75,716.35 1133.98,717.21 1133.41,717.91 1132.07,718.44"/>
    </edge>
    <edge id=":189_0" function="internal">
        <lane id=":189_0_0" index="0" disallow="tram rail_urban rail rail_electric rail_fast ship" speed="13.89" length="25.15" shape="1116.98,1224.91 1110.50,1223.01 1105.14,1220.43 1100.00,1217.28 1094.17,1213.67"/>
        <lane id=":189_0_1" index="1" disallow="tram rail_urban rail rail_electric rail_fast ship" speed="13.89" length="25.15" shape="1117.64,1221.78 1111.17,1220.12 1105.92,1217.99 1101.07,1215.03 1095.80,1210.90"/>
    </edge>
    <edge id=":189_2" function="internal">
        <lane id=":189_2_0" index="0" disallow="tram rail_urban rail rail_electric rail_fast ship" speed="3.65" length="1.44" shape="1117.64,1221.78 1116.63,1220.75"/>
    </edge>
    <edge id=":189_8" function="internal">