<?xml version="1.0" encoding="UTF-8"?>
<routes>
	<vType accel="3.0" decel="6.0" id="CarDefault" length="4.5" minGap="2.5" maxSpeed="50.0" sigma="0.5" color="1,0,0"/>
	<trip id="t0" depart="0" fromJunction="77" toJunction="0" type="CarDefault" departLane="random"/>
	<trip id="t1" depart="0" fromJunction="77" toJunction="0" type="CarDefault" departLane="random"/>
	<trip id="t2" depart="0" fromJunction="77" toJunction="0" type="CarDefault" departLane="random"/>
	<trip id="t3" depart="0" fromJunction="77" toJunction="0" type="CarDefault" departLane="random"/>
	<trip id="t4" depart="0" fromJunction="77" toJunction="0" type="CarDefault" departLane="random"/>
	<trip id="t5" depart="0" fromJunction="77" toJunction="0" type="CarDefault" departLane="random"/>
	<trip id="t6" depart="0" fromJunction="77" toJunction="0" type="CarDefault" departLane="random"/>
	<trip id="t7" depart="0" fromJunction="77" toJunction="0" type="CarDefault" departLane="random"/>
	<trip id="t8" depart="0" fromJunction="77" toJunction="0" type="CarDefault" departLane="random"/>
	<trip id="t9" depart="0" fromJunction="77" toJunction="0" type="CarDefault" departLane="random"/>

	<trip id="t10" depart="4" fromJunction="33" toJunction="91" type="CarDefault" departLane="random"/>
	<trip id="t11" depart="5" fromJunction="33" toJunction="91" type="CarDefault" departLane="random"/>
	<trip id="t12" depart="6" fromJunction="33" toJunction="91" type="CarDefault" departLane="random"/>
	<trip id="t13" depart="7" fromJunction="33" toJunction="91" type="CarDefault" departLane="random"/>
	<trip id="t14" depart="8" fromJunction="33" toJunction="91" type="CarDefault" departLane="random"/>
	<trip id="t15" depart="9" fromJunction="33" toJunction="91" type="CarDefault" departLane="random"/>
	<trip id="t16" depart="10" fromJunction="33" toJunction="91" type="CarDefault" departLane="random"/>
	<trip id="t17" depart="10" fromJunction="33" toJunction="91" type="CarDefault" departLane="random"/>
	<trip id="t18" depart="10" fromJunction="33" toJunction="91" type="CarDefault" departLane="random"/>
	<trip id="t19" depart="10" fromJunction="33" toJunction="91" type="CarDefault" departLane="random"/>

	<trip id="t20" depart="10" fromJunction="37" toJunction="3" type="CarDefault" departLane="random"/>
	<trip id="t21" depart="20" fromJunction="37" toJunction="3" type="CarDefault" departLane="random"/>
	<trip id="t22" depart="30" fromJunction="37" toJunction="3" type="CarDefault" departLane="random"/>
	<trip id="t23" depart="40" fromJunction="77" toJunction="3" type="CarDefault" departLane="random"/>
	<trip id="t24" depart="50" fromJunction="37" toJunction="3" type="CarDefault" departLane="random"/>
	<trip id="t25" depart="60" fromJunction="37" toJunction="3" type="CarDefault" departLane="random"/>
	<trip id="t26" depart="70" fromJunction="37" toJunction="3" type="CarDefault" departLane="random"/>
	<trip id="t27" depart="80" fromJunction="77" toJunction="3" type="CarDefault" departLane="random"/>
	<trip id="t28" depart="90" fromJunction="37" toJunction="3" type="CarDefault" departLane="random"/>
	<trip id="t29" depart="100" fromJunction="37" toJunction="3" type="CarDefault" departLane="random"/>
	<trip id="t30" depart="4010" fromJunction="77" toJunction="3" type="CarDefault" departLane="random"/>


</routes>
