<?xml version="1.0" encoding="UTF-8"?>
<routes>
	<vType accel="3.0" decel="6.0" id="CarDefault" length="4.5" minGap="2.5" maxSpeed="50.0" sigma="0.5" color="1,0,0"/>
	<route id="r230" edges="84 85 86 87 88 153 144 159"/>
	<route id="r231" edges="132 133 43 153 144 145 47 56 55 165"/>

	<vehicle id="t0" depart="0" route="r230" type="CarDefault" departLane="random"/>
	<vehicle id="t1" depart="0" route="r230" type="CarDefault" departLane="random"/>
	<vehicle id="t2" depart="0" route="r231" type="CarDefault" departLane="random"/>
	<vehicle id="t3" depart="0" route="r230" type="CarDefault" departLane="random"/>
	<vehicle id="t4" depart="0" route="r230" type="CarDefault" departLane="random"/>
	<vehicle id="t5" depart="0" route="r230" type="CarDefault" departLane="random"/>
	<vehicle id="t6" depart="0" route="r230" type="CarDefault" departLane="random"/>
	<vehicle id="t7" depart="0" route="r230" type="CarDefault" departLane="random"/>
	<vehicle id="t8" depart="0" route="r231" type="CarDefault" departLane="random"/>
	<vehicle id="t9" depart="0" route="r230" type="CarDefault" departLane="random"/>

	<vehicle id="t10" depart="15" route="r230" type="CarDefault" departLane="random"/>
	<vehicle id="t11" depart="15" route="r230" type="CarDefault" departLane="random"/>
	<vehicle id="t12" depart="15" route="r230" type="CarDefault" departLane="random"/>
	<vehicle id="t13" depart="15" route="r231" type="CarDefault" departLane="random"/>
	<vehicle id="t14" depart="15" route="r231" type="CarDefault" departLane="random"/>
	<vehicle id="t15" depart="15" route="r230" type="CarDefault" departLane="random"/>
	<vehicle id="t16" depart="15" route="r230" type="CarDefault" departLane="random"/>
	<vehicle id="t17" depart="15" route="r230" type="CarDefault" departLane="random"/>
	<vehicle id="t18" depart="15" route="r230" type="CarDefault" departLane="random"/>
	<vehicle id="t19" depart="15" route="r231" type="CarDefault" departLane="random"/>

	<vehicle id="t20" depart="30" route="r231" type="CarDefault" departLane="random"/>
	<vehicle id="t21" depart="30" route="r231" type="CarDefault" departLane="random"/>
	<vehicle id="t22" depart="30" route="r230" type="CarDefault" departLane="random"/>
	<vehicle id="t23" depart="30" route="r231" type="CarDefault" departLane="random"/>
	<vehicle id="t24" depart="30" route="r231" type="CarDefault" departLane="random"/>
	<vehicle id="t25" depart="30" route="r230" type="CarDefault" departLane="random"/>
	<vehicle id="t26" depart="30" route="r231" type="CarDefault" departLane="random"/>
	<vehicle id="t27" depart="30" route="r231" type="CarDefault" departLane="random"/>
	<vehicle id="t28" depart="30" route="r231" type="CarDefault" departLane="random"/>
	<vehicle id="t29" depart="30" route="r231" type="CarDefault" departLane="random"/>
	<vehicle id="t30" depart="30" route="r230" type="CarDefault" departLane="random"/>


	<vehicle id="t31" depart="40" route="r231" type="CarDefault" departLane="random"/>

	<vehicle id="t32" depart="50" route="r231" type="CarDefault" departLane="random"/>

	<vehicle id="t33" depart="150" route="r230" type="CarDefault" departLane="random"/>


</routes>
